*Heading
 jobDescription
** Job name: Job-MESH-7-Buckle Model name: Model-1-Buckle
** Generated by: Abaqus/CAE 2022
*Preprint, echo=NO, model=NO, history=NO, contact=NO
**
** PARTS
**
*Part, name=Blank
*End Part
**  
**
** ASSEMBLY
**
*Assembly, name=Assembly
**  
*Instance, name=Blank-1, part=Blank
*Node
      1,   163.201599,   112.702393,   6.30000019
      2,   163.201599,   112.702393,           0.
      3,   33.8514519,   126.734268,   6.30000019
      4,   33.8514519,   126.734268,           0.
      5,   489.356018,    109.62307,   6.30000019
      6,   489.356018,    109.62307,           0.
      7,   188.702881,   142.056381,   6.30000019
      8,           0.,   118.599998,   6.30000019
      9,   47.4367943,   143.012253,   6.30000019
     10,         520.,   118.599998,   6.30000019
     11,   465.537964,   135.966904,   6.30000019
     12,           0.,           0.,   6.30000019
     13,           0.,   228.600006,   6.30000019
     14,           0.,   228.600006,           0.
     15,           0.,           0.,           0.
     16,         520.,   228.600006,   6.30000019
     17,         520.,   228.600006,           0.
     18,         520.,           0.,           0.
     19,         520.,           0.,   6.30000019
     20,   169.363052,   109.622566,   6.30000019
** ... 27091 like lines cut
*Element, type=C3D10
    1,  4588,  1326,   546,   535,  4619,  4618,  4617,  4621,  4620,  4622
    2,  4588,   667,  1477,  1326,  4625,  4624,  4623,  4619,  4626,  4627
    3,  4588,  1326,   547,  2724,  4619,  4629,  4628,  4631,  4630,  4632
    4,  4588,  2724,   547,    72,  4631,  4632,  4628,  4634,  4633,  4635
    5,  4588,    72,   535,    71,  4634,  4636,  4621,  4638,  4637,  4639
    6,  1476,   125,   924,  4589,  4642,  4641,  4640,  4644,  4643,  4645
    7,  4589,   124,  1428,  1476,  4648,  4647,  4646,  4644,  4649,  4650
    8,  4589,  1428,   124,   609,  4646,  4647,  4648,  4652,  4651,  4653
    9,   609,  4589,  1366,   633,  4652,  4655,  4654,  4657,  4656,  4658
   10,  4589,  1428,  1366,   924,  4646,  4659,  4655,  4645,  4660,  4661
   11,  2492,  4590,   661,  2645,  4664,  4663,  4662,  4666,  4665,  4667
   12,   610,  4589,  1366,   924,  4669,  4655,  4668,  4670,  4645,  4661
   13,  4589,   125,   924,   610,  4643,  4641,  4645,  4669,  4671,  4670
   14,  4591,    16,   521,    17,  4674,  4673,  4672,  4676,  4675,  4677
   15,  4591,   521,    16,   258,  4672,  4673,  4674,  4679,  4678,  4680
   16,  4590,   661,  2951,  2492,  4663,  4682,  4681,  4664,  4662,  4683
   17,  1217,  1149,   259,  3362,  4686,  4685,  4684,  4688,  4687,  4689
   18,  3167,  1149,  3362,   258,  4691,  4687,  4690,  4693,  4692,  4694
   19,  4591,    17,   521,   395,  4676,  4677,  4672,  4696,  4695,  4697
   20,  4591,  3167,  1149,   395,  4699,  4691,  4698,  4696,  4700,  4701
** ... 13266 like lines cut
*Nset, nset="Aluminum blank", generate
     1,  27111,      1
*Elset, elset="Aluminum blank", generate
     1,  13286,      1
** Section: Aluminium section
*Solid Section, elset="Aluminum blank", material="Aluminium alloy 6061-T6"
,
*End Instance
**  
*Node
      1,         170.,   118.599998,    3.1500001
*Nset, nset="Inner left", instance=Blank-1
     3,     4,    34,    35,    36,    37,    38,    39,    40,    41,    42,    43,    44,    45,    46,    47
  4716,  4719,  4721,  4726, 17407, 17409, 17411, 17675, 17676, 17677, 22175, 22177, 22521, 22525, 22526, 22682
 23141, 23533, 23536, 23551, 23594, 23595, 23619, 23635, 23636, 23649, 23650, 24251, 25563, 25564, 25593, 26779
*Elset, elset="Inner left", instance=Blank-1
  4066,  4192,  6541,  6760,  6868,  7301,  7309,  7338,  7355,  7360,  7373,  7819,  7838,  8994,  9017, 11520
*Nset, nset="Inner right", instance=Blank-1
     5,     6,    48,    49,    50,    51,    52,    53,    54,    55,    56,    57,    58,    59,    60,    61
  4763,  4768,  4918,  4919,  4920, 22363, 23009, 23011, 23497, 23498, 23499, 23617, 23673, 23713, 23723, 23735
 23736, 23779, 23782, 23784, 23786, 23787, 23795, 23805, 24752, 24779, 24854, 24855, 24859, 24860, 24884, 26530
*Elset, elset="Inner right", instance=Blank-1
    71,  7026,  7287,  7398,  7432,  7444,  7462,  7463,  7469,  7476,  8170,  8189,  8237,  8242,  8265, 10746
*Nset, nset="Loading point"
 1,
*Nset, nset="Loading set", instance=Blank-1
     1,     3,     5,     7,     8,     9,    10,    11,    12,    13,    16,    19,    20,    21,    22,    23
    24,    25,    26,    34,    35,    36,    37,    38,    39,    40,    48,    49,    50,    51,    52,    53
    54,    62,    63,    64,    65,    66,    67,    68,    69,    70,    71,    72,    73,    74,    75,    76
    77,    78,    79,    80,    81,    82,    83,    84,    85,    86,    87,    88,    89,    90,    91,    92
    93,    94,    95,    96,    97,    98,    99,   100,   101,   102,   103,   104,   105,   106,   107,   108
   109,   110,   111,   112,   113,   114,   115,   116,   117,   118,   119,   120,   121,   122,   123,   124
   125,   126,   127,   128,   129,   130,   131,   132,   133,   134,   135,   136,   137,   138,   139,   140
   141,   142,   143,   144,   145,   146,   147,   148,   149,   150,   151,   152,   153,   154,   155,   156
   157,   158,   159,   160,   191,   192,   193,   194,   195,   196,   197,   198,   199,   200,   201,   202
   203,   204,   205,   206,   207,   208,   209,   210,   211,   212,   213,   214,   215,   216,   217,   218
   219,   220,   221,   222,   223,   224,   225,   226,   227,   228,   229,   230,   231,   232,   233,   234
   235,   236,   237,   238,   239,   240,   241,   242,   243,   244,   245,   246,   247,   248,   249,   250
   251,   252,   253,   254,   255,   256,   257,   258,   425,   426,   427,   428,   429,   430,   431,   432
   433,   434,   435,   436,   437,   438,   439,   440,   441,   442,   443,   444,   445,   446,   447,   448
   449,   450,   451,   452,   453,   454,   455,   456,   457,   458,   459,   460,   461,   462,   463,   464
   465,   466,   467,   468,   469,   470,   471,   472,   473,   474,   475,   476,   477,   478,   479,   480
   481,   482,   483,   484,   485,   486,   487,   488,   489,   490,   491,   492,   493,   494,   495,   496
   497,   498,   499,   500,   501,   502,   503,   504,   505,   506,   507,   508,   509,   510,   511,   512
   513,   514,   515,   516,   517,   518,   519,   520,   521,   522,   523,   524,   525,   526,   527,   528
   529,   530,   531,   532,   533,   534,   535,   536,   537,   538,   539,   540,   541,   542,   543,   544
** ... 530 like lines cut
*Elset, elset="Loading set", instance=Blank-1
     5,    15,    18,    24,    29,    33,    43,    62,    65,    83,    84,    85,    86,    88,    89,    93
    96,    97,    99,   100,   103,   104,   106,   109,   112,   113,   117,   118,   122,   123,   124,   127
   128,   131,   134,   138,   139,   140,   143,   144,   145,   149,   150,   155,   159,   160,   163,   165
   167,   168,   175,   176,   177,   178,   180,   181,   182,   183,   184,   185,   186,   187,   191,   195
   196,   197,   200,   201,   202,   203,   204,   208,   209,   211,   212,   215,   217,   218,   221,   222
   223,   227,   228,   229,   230,   231,   232,   234,   235,   236,   238,   239,   241,   242,   244,   246
   248,   249,   251,   253,   255,   256,   257,   258,   259,   260,   261,   262,   263,   265,   266,   267
   268,   269,   271,   277,   280,   281,   282,   283,   284,   286,   287,   290,   292,   294,   295,   297
   298,   303,   306,   308,   309,   311,   313,   314,   316,   317,   319,   321,   323,   327,   328,   329
   333,   334,   335,   336,   337,   339,   340,   343,   344,   345,   346,   347,   348,   349,   350,   357
   358,   360,   361,   362,   364,   369,   371,   374,   375,   378,   380,   382,   384,   390,   392,   395
   396,   397,   398,   403,   404,   407,   410,   411,   412,   420,   423,   425,   429,   430,   431,   432
   433,   434,   435,   436,   440,   443,   444,   445,   446,   447,   448,   450,   451,   453,   454,   455
   456,   460,   463,   464,   466,   469,   474,   475,   476,   477,   478,   479,   482,   483,   486,   487
   488,   490,   491,   492,   493,   494,   495,   496,   497,   498,   499,   501,   502,   503,   504,   507
   510,   511,   514,   515,   517,   523,   524,   534,   539,   542,   544,   545,   550,   551,   554,   555
   556,   558,   561,   562,   563,   567,   571,   576,   577,   581,   584,   585,   587,   589,   590,   591
   594,   599,   601,   603,   604,   605,   607,   608,   609,   611,   614,   618,   619,   621,   624,   625
   626,   627,   631,   634,   644,   646,   649,   651,   652,   656,   659,   662,   663,   667,   668,   669
   671,   672,   676,   677,   680,   684,   685,   688,   689,   692,   693,   694,   695,   697,   700,   703
** ... 248 like lines cut
*Nset, nset="loading inner circle set", instance=Blank-1
     1,     2,    20,    21,    22,    23,    24,    25,    26,    27,    28,    29,    30,    31,    32,    33
 21952, 22036, 22038, 22040, 23312, 23319, 23321, 23323, 23334, 23335, 23374, 23375, 23382, 23390, 23443, 23445
 23456, 23458, 23480, 23481, 23508, 23510, 23829, 23830, 23878, 23928, 23929, 24054, 24056, 26851, 26920, 27033
*Elset, elset="loading inner circle set", instance=Blank-1
  6456,  7214,  7219,  7232,  7260,  7269,  7278,  7293,  7485,  7523,  7567,  7644,  8489, 11930, 12179, 12852
*Nset, nset="loading point set"
 1,
*Surface, type=NODE, name="loading inner circle set_CNS_", internal
"loading inner circle set", 1.
** Constraint: Loading Constraint
*MPC
BEAM, "loading inner circle set", "Loading point"
*End Assembly
** 
** MATERIALS
** 
*Material, name="Aluminium alloy 6061-T6"
*Density
 2.7e-09,
*Elastic
68900., 0.33
** ----------------------------------------------------------------
** 
** STEP: buckling
** 
*Step, name=buckling, nlgeom=NO, perturbation
buckling
*Buckle, eigensolver=lanczos
1, 0., , , 
** 
** BOUNDARY CONDITIONS
** 
** Name: Fixed left Type: Symmetry/Antisymmetry/Encastre
*Boundary, op=NEW, load case=1
"Inner left", PINNED
*Boundary, op=NEW, load case=2
"Inner left", PINNED
** Name: Inner right Type: Symmetry/Antisymmetry/Encastre
*Boundary, op=NEW, load case=1
"Inner right", PINNED
*Boundary, op=NEW, load case=2
"Inner right", PINNED
** 
** LOADS
** 
** Name: Loading centre   Type: Concentrated force
*Cload
"Loading point", 2, -1.
** 
** OUTPUT REQUESTS
** 
*Restart, write, frequency=0
** 
** FIELD OUTPUT: F-Output-1
** 
*Output, field, variable=PRESELECT
*End Step
