1

   Abaqus 2022                                  Date 06-Feb-2024   Time 13:10:02
   For use by IMPERIAL COLLEGE OF SCIENCE TECHNOLOGYMEDICINE under license from Dassault Systemes or its subsidiary.



                         The Abaqus Software is a product of:

                           Dassault Systemes SIMULIA Corp.
                           1301 Atwood Avenue, Suite 101W
                              Johnston, RI 02919, USA
 


                   The Abaqus Software is available only under license
                   from Dassault Systemes or its subsidiary and may be
                   used or reproduced only in accordance with the terms
                   of such license.
 
                          On machine Daniel-Gutierrez 
                          you are authorized to run
                          Abaqus/Standard until 31-Mar-2024

                          Your site id is: 200000000048523 


 
                    For assistance or any other information you may
                    obtain contact information for your local office
                    from the world wide web at:

                      http://www.3ds.com/products/simulia/locations/

 
                * * * * * * * * * * * * * * * * * * * * * * * * * * * * * * 
                *                                                         * 
                *                   *****************                     * 
                *                   *  N O T I C E  *                     * 
                *                   *****************                     * 
                *                                                         * 
                *                                                         * 
                *                       Abaqus 2022                       * 
                *                                                         * 
                *          BUILD ID: 2021_09_15-18.57.30 176069           * 
                *                                                         * 
                *                                                         * 
                *  Please make sure you are using                         * 
                *  release Abaqus 2022 manuals                            * 
                *  plus the notes accompanying this release.              * 
                *                                                         * 
                *                                                         * 
                *                                                         * 
                *                                                         * 
                *                                                         * 
                *   This program may not be used for commercial purposes  * 
                *           without payment of a commercial fee.          * 
                *                                                         * 
                * * * * * * * * * * * * * * * * * * * * * * * * * * * * * * 


 



     PROCESSING PART, INSTANCE, AND ASSEMBLY INFORMATION
   *******************************************************


     END PROCESSING PART, INSTANCE, AND ASSEMBLY INFORMATION
   ***********************************************************




     OPTIONS BEING PROCESSED
   ***************************


  *Heading
          jobDescription                                                                                                                                                                                                                                                                                                                                                                                                                                                                                                                  
  *Node
  *Element, type=C3D10
  *Nset, nset="ASSEMBLY_BLANK-1_Aluminum blank"
  *Elset, elset="ASSEMBLY_BLANK-1_Aluminum blank"
  *Node
  *Nset, nset="ASSEMBLY_Inner left"
  *Nset, nset="ASSEMBLY_Inner right"
  *Nset, nset="ASSEMBLY_Loading point"
  *Nset, nset="ASSEMBLY_Loading set"
  *Nset, nset="ASSEMBLY_loading inner circle set"
  *Nset, nset="ASSEMBLY_loading point set"
  *Elset, elset="ASSEMBLY_Inner left"
  *Elset, elset="ASSEMBLY_Inner right"
  *Elset, elset="ASSEMBLY_Loading set"
  *Elset, elset="ASSEMBLY_loading inner circle set"
  *material, name="Aluminium alloy 6061-T6"
  *density
  *elastic
  *solidsection, elset="ASSEMBLY_BLANK-1_Aluminum blank", material="Aluminium alloy 6061-T6"
  *solidsection, elset="ASSEMBLY_BLANK-1_Aluminum blank", material="Aluminium alloy 6061-T6"
  *surface, type=NODE, name="ASSEMBLY_loading inner circle set_CNS_"
  *surface, type=NODE, name="ASSEMBLY_loading inner circle set_CNS_"
  *boundary, op=NEW, loadcase=1
  *boundary, op=NEW, loadcase=2
  *boundary, op=NEW, loadcase=1
  *boundary, op=NEW, loadcase=2
  *boundary, op=NEW, loadcase=1
  *boundary, op=NEW, loadcase=2
  *boundary, op=NEW, loadcase=1
  *boundary, op=NEW, loadcase=2
  *mpc
  *surface, type=NODE, name="ASSEMBLY_loading inner circle set_CNS_"
  *output, field, variable=PRESELECT
  *output, field, variable=PRESELECT
  *output, field, variable=PRESELECT

 ***NOTE: MPCS (EXTERNAL or INTERNAL, including those generated from rigid body 
          definitions), KINEMATIC COUPLINGS, AND/OR EQUATIONS WILL ACTIVATE 
          ADDITIONAL DEGREES OF FREEDOM
  
                               E L E M E N T   Q U A L I T Y  C H E C K S        
  
  
 ***NOTES: DISTORTED ISOPARAMETRIC ELEMENTS: ANGLE BETWEEN ISOPARAMETRIC LINES 
           IS LESS THAN 45 DEGREES OR GREATER THAN 135 DEGREES.
  
           TETRAHEDRAL QUALITY MEASURE: VOLUME OF TETRAHEDRON DIVIDED BY THE 
           VOLUME OF EQUILATERAL TETRAHEDRON WITH SAME CIRCUMSPHERE RADIUS; 
           0 FOR DEGENERATE TETRAHEDRON AND 1 FOR EQUILATERIAL TETRAHEDRON. IT 
           IS RECOMMENDED THAT THE TETRAHEDRAL QUALITY MEASURE BE GREATER THAN 
           0.02, THE MIN INTERIOR (DIHEDRAL) ANGLE BE GREATER THAN 10 DEGREES, 
           AND THE MAX INTERIOR (DIHEDRAL) ANGLE BE LESS THAN 160 DEGREES. 
  
           MODIFIED TETRAHEDRAL QUALITY MEASURE: ANGLES BETWEEN THE TWO LINE 
           SEGMENTS ON EACH EDGE; THE EDGES OF MODIFIED TETRAHEDRAL SHOULD BE 
           AS STRAIGHT AS POSSIBLE. IT IS RECOMMENDED THAT THE ANGLE BETWEEN 
           THE TWO LINE SEGMENTS ON EACH EDGE IS BETWEEN 160 AND 180 DEGREES. 
  
           TRIANGULAR QUALITY MEASURE: AREA OF TRIANGLE DIVIDED BY THE AREA OF 
           EQUILATERAL TRIANGLE WITH SAME CIRCUMCIRCLE RADIUS; 0 FOR DEGENERATE 
           TRIANGLE AND 1 FOR EQUILATERAL TRIANGLE. IT IS RECOMMENDED THAT THE
           TRIANGULAR QUALITY MEASURE BE GREATER THAN 0.01, THE MIN INTERIOR 
           ANGLE BE GREATER THAN 10 DEGREES, AND THE MAX INTERIOR ANGLE BE LESS 
           THAN 160 DEGREES. 
  
           NODAL ADJUSTMENTS ARISING FROM CONTACT INTERACTIONS AND/OR TIE 
           CONSTRAINTS CAN CAUSE SEVERE ELEMENT DISTORTION. IT MAY BE NECESSARY 
           TO REMESH IN ORDER TO REDUCE THE AMOUNT OF ADJUSTMENT. 

 ***WARNING: 108 elements are distorted. Either the isoparametric angles are 
             out of the suggested limits or the triangular or tetrahedral 
             quality measure is bad. The elements have been identified in 
             element set WarnElemDistorted.
  
 --------------------------------------------------------------------------------
 Distorted tetrahedral elements
  
      Element      Quality measure     Min angle        Max angle     Adjusted nodes 
 ----------------- ---------------- ---------------- ---------------- -------------- 
         BLANK-1.1        0.0187842          16.5358          143.215       NO       
         BLANK-1.3        0.0294114          7.11578          124.339       NO       
         BLANK-1.8       0.00619003          8.92459          132.045       NO       
        BLANK-1.16        0.0395681          5.72015          92.3027       NO       
        BLANK-1.17       0.00781423           15.657          153.527       NO       
        BLANK-1.23        0.0158308          4.14361           96.614       NO       
        BLANK-1.24       0.00969139          5.02581          98.0452       NO       
        BLANK-1.30        0.0175071          23.0211          139.206       NO       
        BLANK-1.36       0.00484517          9.44377          150.582       NO       
        BLANK-1.37        0.0123686          4.85686           92.881       NO       
        BLANK-1.44         0.087113          4.77253              90.       NO       
        BLANK-1.45         0.118562          5.86598              90.       NO       
        BLANK-1.46        0.0246208          6.49968          104.294       NO       
        BLANK-1.49         0.137996          6.44108              90.       NO       
        BLANK-1.51       0.00836131          7.49593          127.897       NO       
        BLANK-1.54        0.0357043          7.38372          128.855       NO       
        BLANK-1.60       0.00472672          10.7524          139.569       NO       
        BLANK-1.61        0.0144219           10.268          148.909       NO       
        BLANK-1.62       0.00103423          7.27741          163.912       NO       
        BLANK-1.70        0.0177874          19.2272          126.498       NO       
        BLANK-1.71       0.00342192          12.0273          152.567       NO       
        BLANK-1.72       0.00116845          8.88263          158.441       NO       
        BLANK-1.74       0.00562904          8.94779          151.154       NO       
        BLANK-1.97        0.0179214          11.0576          142.683       NO       
       BLANK-1.106        0.0907334          9.28358          136.283       NO       
       BLANK-1.120        0.0169025          20.5007          150.784       NO       
       BLANK-1.124        0.0166697           15.302          147.253       NO       
       BLANK-1.125         0.121398          8.83115          135.141       NO       
       BLANK-1.130        0.0476219          5.95997          92.0872       NO       
       BLANK-1.147         0.010248          12.8909           142.67       NO       
       BLANK-1.149        0.0313583          6.98318          101.342       NO       
       BLANK-1.154        0.0638488          4.90823          90.8194       NO       
       BLANK-1.157        0.0187628          7.90601          121.269       NO       
       BLANK-1.159       0.00982245           4.8244          93.1046       NO       
       BLANK-1.160        0.0455807          4.38748          103.947       NO       
       BLANK-1.162       0.00543235          10.8669          149.608       NO       
       BLANK-1.163       0.00808936            10.89          152.246       NO       
       BLANK-1.164       0.00748245          5.32438          93.6922       NO       
       BLANK-1.165       0.00982245          4.97884          98.0108       NO       
       BLANK-1.166        0.0444509          8.81716           113.11       NO       
       BLANK-1.168       0.00214774          9.70535          147.742       NO       
       BLANK-1.169         0.074613          4.98797              90.       NO       
       BLANK-1.170       0.00173368          25.0948          103.957       NO       
       BLANK-1.171        0.0109496          17.3105          148.934       NO       
       BLANK-1.172        0.0881867          5.15823          100.524       NO       
       BLANK-1.174        0.0428003          5.90929          108.346       NO       
       BLANK-1.181        0.0152965          4.31425          92.3332       NO       
       BLANK-1.183        0.0158308          4.42611          92.3508       NO       
       BLANK-1.193        0.0152965          4.33585          96.6456       NO       
       BLANK-1.194        0.0196821          20.1448          138.605       NO       
       BLANK-1.200         0.056039          5.53463          91.5219       NO       
       BLANK-1.205        0.0106224          11.3427           151.12       NO       
       BLANK-1.210        0.0497389          5.12986          91.5012       NO       
       BLANK-1.211        0.0252381          10.7409          160.587       NO       
       BLANK-1.218       0.00748245          5.22831          98.9303       NO       
       BLANK-1.221        0.0402906           12.266          161.106       NO       
       BLANK-1.222         0.103597          5.26498              90.       NO       
       BLANK-1.223        0.0278329          10.6206          161.457       NO       
       BLANK-1.226         0.132853          6.48748          96.0658       NO       
       BLANK-1.248       0.00875476          15.0327          144.581       NO       
       BLANK-1.259        0.0617076           8.3478           139.88       NO       
       BLANK-1.286        0.0941171          6.31912          101.888       NO       
       BLANK-1.293        0.0154242          21.5133          141.119       NO       
       BLANK-1.313         0.012254          10.3225          161.977       NO       
       BLANK-1.317        0.0122575          6.08246          94.0337       NO       
       BLANK-1.318       0.00621387          17.0445          129.043       NO       
       BLANK-1.319        0.0165353          14.3807          147.249       NO       
       BLANK-1.320        0.0231389          7.20203          155.562       NO       
       BLANK-1.333       0.00137711          15.9285          165.722       NO       
       BLANK-1.337        0.0546791          5.55256           91.586       NO       
       BLANK-1.338       0.00178642          6.51489           96.864       NO       
       BLANK-1.340        0.0156203          16.3829          151.044       NO       
       BLANK-1.341       0.00352489          9.63589          143.903       NO       
       BLANK-1.346       0.00969139          4.81569          93.1116       NO       
       BLANK-1.350        0.0359134          6.01417          92.6565       NO       
       BLANK-1.353      0.000870751          24.8387          113.204       NO       
       BLANK-1.354        0.0121555           15.325          136.049       NO       
       BLANK-1.360       0.00218724          22.4202          163.401       NO       
       BLANK-1.367       0.00498294          15.5253          149.977       NO       
       BLANK-1.372       0.00257308          9.49773          144.993       NO       
       BLANK-1.373       0.00481171          11.0251          149.397       NO       
       BLANK-1.374      0.000733879          25.5399          133.361       NO       
       BLANK-1.381         0.101449          6.10502          90.1731       NO       
       BLANK-1.385         0.103585           9.9768          125.309       NO       
       BLANK-1.392      0.000850981          4.86024          98.1978       NO       
       BLANK-1.405        0.0860002          9.36572          135.365       NO       
       BLANK-1.407        0.0900442          4.48622              90.       NO       
       BLANK-1.416        0.0384184          5.15339          91.9682       NO       
       BLANK-1.418       0.00437773          18.1964          146.144       NO       
       BLANK-1.424        0.0742956          8.48427          136.101       NO       
       BLANK-1.428       0.00248996          13.1813          149.408       NO       
       BLANK-1.432        0.0614147          4.96242          90.9387       NO       
       BLANK-1.433        0.0082098           24.635          151.081       NO       
       BLANK-1.438        0.0180437          13.1811           143.72       NO       
       BLANK-1.452       0.00743501          5.64349          93.9153       NO       
       BLANK-1.455        0.0139012          11.0827          153.541       NO       
       BLANK-1.457        0.0490493          5.23404          91.5894       NO       
       BLANK-1.458       0.00329995          17.3951           163.56       NO       
       BLANK-1.459       0.00578858          13.8573           127.94       NO       
       BLANK-1.465        0.0682396          4.77095              90.       NO       
       BLANK-1.484       0.00663384          8.70895          134.537       NO       
       BLANK-1.489        0.0122648          7.58901          141.418       NO       
       BLANK-1.493        0.0569072          12.5677          160.903       NO       
       BLANK-1.498       0.00963222          18.3461          148.075       NO       
       BLANK-1.500        0.0147305          5.96012          93.7602       NO       
       BLANK-1.501        0.0180877          8.79737          137.026       NO       
       BLANK-1.510       0.00747159          16.1235          146.586       NO       
       BLANK-1.515       0.00111852          27.7035          129.986       NO       
  
  
  *Step, name=buckling, nlgeom=NO, perturbation
  *output, field, variable=PRESELECT
  *Step, name=buckling, nlgeom=NO, perturbation
  *Step, name=buckling, nlgeom=NO, perturbation
  buckling                                                                        
  *buckle, eigensolver=LANCZOS
  *boundary, op=NEW, loadcase=1
  *boundary, op=NEW, loadcase=2
  *boundary, op=NEW, loadcase=1
  *boundary, op=NEW, loadcase=2
  *output, field, variable=PRESELECT
  *endstep
  *Step, name=buckling, nlgeom=NO, perturbation
  *buckle, eigensolver=LANCZOS
  *buckle, eigensolver=LANCZOS
  *boundary, op=NEW, loadcase=1
  *boundary, op=NEW, loadcase=2
  *boundary, op=NEW, loadcase=1
  *boundary, op=NEW, loadcase=2
  *cload
  *endstep



                            P R O B L E M   S I Z E


          NUMBER OF ELEMENTS IS                                   517
          NUMBER OF NODES IS                                     1082
          NUMBER OF NODES DEFINED BY THE USER                    1082
          TOTAL NUMBER OF VARIABLES IN THE MODEL                 3321
          (DEGREES OF FREEDOM PLUS MAX NO. OF ANY LAGRANGE MULTIPLIER
           VARIABLES. INCLUDE *PRINT,SOLVE=YES TO GET THE ACTUAL NUMBER.)



                              END OF USER INPUT PROCESSING



     JOB TIME SUMMARY
       USER TIME (SEC)      =   0.0000    
       SYSTEM TIME (SEC)    =   0.0000    
       TOTAL CPU TIME (SEC) =   0.0000    
       WALLCLOCK TIME (SEC) =          1
1

   Abaqus 2022                                  Date 06-Feb-2024   Time 13:10:04
   For use by IMPERIAL COLLEGE OF SCIENCE TECHNOLOGYMEDICINE under license from Dassault Systemes or its subsidiary.

     jobDescription                                                                            STEP    1  INCREMENT    1
     buckling                                                                             TIME COMPLETED IN THIS STEP   0.00    


                        S T E P       1     C A L C U L A T I O N   O F   E I G E N V A L U E S

                                            F O R   B U C K L I N G   P R E D I C T I O N



          buckling                                                                        

     THE LANCZOS EIGENSOLVER IS USED FOR THIS ANALYSIS
     Abaqus WILL COMPUTE UNCOUPLED
      STRUCTURAL AND ACOUSTIC MODES
     NUMBER OF EIGENVALUES                      1
     SMALLEST EIGENVALUE OF INTEREST                 0.0000    
     MAXIMUM NUMBER OF STEPS WITHIN RUN               40
     BLOCK SIZE FOR LANCZOS PROCEDURE                  1
     THE BUCKLING MODE CONSTRAINTS 
      ARE DEFINED AS LOAD CASE 2
                              ONLY INITIAL STRESS EFFECTS ARE INCLUDED IN THE
                              STIFFNESS MATRIX

     THIS IS A LINEAR PERTURBATION STEP.
     ALL LOADS ARE DEFINED AS CHANGE IN LOAD TO THE REFERENCE STATE



                    TOTAL MASS OF MODEL

                      2.0097510E-03


                    LOCATION OF THE CENTER OF MASS OF THE MODEL

                       260.2584           114.2736           3.149821    


                    MOMENTS OF INERTIA ABOUT THE ORIGIN
                           I(XX)               I(YY)               I(ZZ)

                       35.07587           181.2626           216.2853    


                    PRODUCTS OF INERTIA ABOUT THE ORIGIN
                           I(XY)               I(XZ)               I(YZ)

                      -59.77347          -1.647444         -0.7233908    


                    MOMENTS OF INERTIA ABOUT THE CENTER OF MASS
                           I(XX)               I(YY)               I(ZZ)

                       8.811700           45.11334           53.91174    


                    PRODUCTS OF INERTIA ABOUT THE CENTER OF MASS
                           I(XY)               I(XZ)               I(YZ)

                     -2.1572172E-03      8.4441694E-05      1.6038668E-06
  
                   M E M O R Y   E S T I M A T E
  
 PROCESS      FLOATING PT       MINIMUM MEMORY        MEMORY TO
              OPERATIONS           REQUIRED          MINIMIZE I/O
             PER ITERATION           (MB)               (MB)
  
     1          7.28E+07               23                 37
  
 NOTE:
      (1) SINCE ABAQUS DOES NOT PRE-ALLOCATE MEMORY AND ONLY ALLOCATES MEMORY AS NEEDED DURING THE ANALYSIS,
          THE MEMORY REQUIREMENT PRINTED HERE CAN ONLY BE VIEWED AS A GENERAL GUIDELINE BASED ON THE BEST
          KNOWLEDGE AVAILABLE AT THE BEGINNING OF A STEP BEFORE THE SOLUTION PROCESS HAS BEGUN.
      (2) THE ESTIMATE IS NORMALLY UPDATED AT THE BEGINNING OF EVERY STEP. IT IS THE MAXIMUM VALUE OF THE
          ESTIMATE FROM THE CURRENT STEP TO THE LAST STEP OF THE ANALYSIS, WITH UNSYMMETRIC SOLUTION TAKEN
          INTO ACCOUNT IF APPLICABLE. 
      (3) SINCE THE ESTIMATE IS BASED ON THE ACTIVE DEGREES OF FREEDOM IN THE FIRST ITERATION OF THE 
          CURRENT STEP, THE MEMORY ESTIMATE MIGHT BE SIGNIFICANTLY DIFFERENT THAN ACTUAL USAGE FOR 
          PROBLEMS WITH SUBSTANTIAL CHANGES IN ACTIVE DEGREES OF FREEDOM BETWEEN STEPS (OR EVEN WITHIN
          THE SAME STEP). EXAMPLES ARE: PROBLEMS WITH SIGNIFICANT CONTACT CHANGES, PROBLEMS WITH MODEL
          CHANGE, PROBLEMS WITH BOTH STATIC STEP AND STEADY STATE DYNAMIC PROCEDURES WHERE ACOUSTIC 
          ELEMENTS WILL ONLY BE ACTIVATED IN THE STEADY STATE DYNAMIC STEPS.
      (4) FOR MULTI-PROCESS EXECUTION, THE ESTIMATED VALUE OF FLOATING POINT OPERATIONS FOR EACH PROCESS
          IS BASED ON AN INITIAL SCHEDULING OF OPERATIONS AND MIGHT NOT REFLECT THE ACTUAL FLOATING 
          POINT OPERATIONS COMPLETED ON EACH PROCESS. OPERATIONS ARE DYNAMICALLY BALANCED DURING EXECUTION, 
          SO THE ACTUAL BALANCE OF OPERATIONS BETWEEN PROCESSES IS EXPECTED TO BE BETTER THAN THE ESTIMATE
          PRINTED HERE.
      (5) THE UPPER LIMIT OF MEMORY THAT CAN BE ALLOCATED BY ABAQUS WILL IN GENERAL DEPEND ON THE VALUE OF
          THE "MEMORY" PARAMETER AND THE AMOUNT OF PHYSICAL MEMORY AVAILABLE ON THE MACHINE. PLEASE SEE
          THE "ABAQUS ANALYSIS USER'S MANUAL" FOR MORE DETAILS. THE ACTUAL USAGE OF MEMORY AND OF DISK
          SPACE FOR SCRATCH DATA WILL DEPEND ON THIS UPPER LIMIT AS WELL AS THE MEMORY REQUIRED TO MINIMIZE
          I/O. IF THE MEMORY UPPER LIMIT IS GREATER THAN THE MEMORY REQUIRED TO MINIMIZE I/O, THEN THE ACTUAL
          MEMORY USAGE WILL BE CLOSE TO THE ESTIMATED "MEMORY TO MINIMIZE I/O" VALUE, AND THE SCRATCH DISK
          USAGE WILL BE CLOSE-TO-ZERO; OTHERWISE, THE ACTUAL MEMORY USED WILL BE CLOSE TO THE PREVIOUSLY
          MENTIONED MEMORY LIMIT, AND THE SCRATCH DISK USAGE WILL BE ROUGHLY PROPORTIONAL TO THE DIFFERENCE
          BETWEEN THE ESTIMATED "MEMORY TO MINIMIZE I/O" AND THE MEMORY UPPER LIMIT. HOWEVER ACCURATE
          ESTIMATE OF THE SCRATCH DISK SPACE IS NOT POSSIBLE.
      (6) USING "*RESTART, WRITE" CAN GENERATE A LARGE AMOUNT OF DATA WRITTEN IN THE WORK DIRECTORY.


                              E I G E N V A L U E    O U T P U T     

 BUCKLING LOAD ESTIMATE = ("DEAD" LOADS) + EIGENVALUE * ("LIVE" LOADS).
          "DEAD" LOADS = TOTAL LOAD BEFORE  *BUCKLE STEP.
          "LIVE" LOADS = INCREMENTAL LOAD IN *BUCKLE STEP


 MODE NO      EIGENVALUE


       1      1.16978E+05


          THE ANALYSIS HAS BEEN COMPLETED



                              ANALYSIS COMPLETE
                              WITH      1 WARNING MESSAGES ON THE DAT FILE
                              AND       1 WARNING MESSAGES ON THE MSG FILE



     JOB TIME SUMMARY
       USER TIME (SEC)      =   0.0000    
       SYSTEM TIME (SEC)    =   0.0000    
       TOTAL CPU TIME (SEC) =   0.0000    
       WALLCLOCK TIME (SEC) =          1
