1

   Abaqus 2022                                  Date 06-Feb-2024   Time 13:11:01
   For use by IMPERIAL COLLEGE OF SCIENCE TECHNOLOGYMEDICINE under license from Dassault Systemes or its subsidiary.



                         The Abaqus Software is a product of:

                           Dassault Systemes SIMULIA Corp.
                           1301 Atwood Avenue, Suite 101W
                              Johnston, RI 02919, USA
 


                   The Abaqus Software is available only under license
                   from Dassault Systemes or its subsidiary and may be
                   used or reproduced only in accordance with the terms
                   of such license.
 
                          On machine Daniel-Gutierrez 
                          you are authorized to run
                          Abaqus/Standard until 31-Mar-2024

                          Your site id is: 200000000048523 


 
                    For assistance or any other information you may
                    obtain contact information for your local office
                    from the world wide web at:

                      http://www.3ds.com/products/simulia/locations/

 
                * * * * * * * * * * * * * * * * * * * * * * * * * * * * * * 
                *                                                         * 
                *                   *****************                     * 
                *                   *  N O T I C E  *                     * 
                *                   *****************                     * 
                *                                                         * 
                *                                                         * 
                *                       Abaqus 2022                       * 
                *                                                         * 
                *          BUILD ID: 2021_09_15-18.57.30 176069           * 
                *                                                         * 
                *                                                         * 
                *  Please make sure you are using                         * 
                *  release Abaqus 2022 manuals                            * 
                *  plus the notes accompanying this release.              * 
                *                                                         * 
                *                                                         * 
                *                                                         * 
                *                                                         * 
                *                                                         * 
                *   This program may not be used for commercial purposes  * 
                *           without payment of a commercial fee.          * 
                *                                                         * 
                * * * * * * * * * * * * * * * * * * * * * * * * * * * * * * 


 



     PROCESSING PART, INSTANCE, AND ASSEMBLY INFORMATION
   *******************************************************


     END PROCESSING PART, INSTANCE, AND ASSEMBLY INFORMATION
   ***********************************************************




     OPTIONS BEING PROCESSED
   ***************************


  *Heading
          jobDescription                                                                                                                                                                                                                                                                                                                                                                                                                                                                                                                  
  *Node
  *Element, type=C3D10
  *Nset, nset="ASSEMBLY_BLANK-1_Aluminum blank"
  *Elset, elset="ASSEMBLY_BLANK-1_Aluminum blank"
  *Node
  *Nset, nset="ASSEMBLY_Inner left"
  *Nset, nset="ASSEMBLY_Inner right"
  *Nset, nset="ASSEMBLY_Loading point"
  *Nset, nset="ASSEMBLY_Loading set"
  *Nset, nset="ASSEMBLY_loading inner circle set"
  *Nset, nset="ASSEMBLY_loading point set"
  *Elset, elset="ASSEMBLY_Inner left"
  *Elset, elset="ASSEMBLY_Inner right"
  *Elset, elset="ASSEMBLY_Loading set"
  *Elset, elset="ASSEMBLY_loading inner circle set"
  *material, name="Aluminium alloy 6061-T6"
  *density
  *elastic
  *solidsection, elset="ASSEMBLY_BLANK-1_Aluminum blank", material="Aluminium alloy 6061-T6"
  *solidsection, elset="ASSEMBLY_BLANK-1_Aluminum blank", material="Aluminium alloy 6061-T6"
  *surface, type=NODE, name="ASSEMBLY_loading inner circle set_CNS_"
  *surface, type=NODE, name="ASSEMBLY_loading inner circle set_CNS_"
  *boundary
  *boundary
  *boundary
  *boundary
  *mpc
  *surface, type=NODE, name="ASSEMBLY_loading inner circle set_CNS_"
  *output, field, variable=PRESELECT
  *output, history, variable=PRESELECT
  *output, field, variable=PRESELECT
  *output, history, variable=PRESELECT
  *output, field, variable=PRESELECT
  *output, history, variable=PRESELECT

 ***NOTE: MPCS (EXTERNAL or INTERNAL, including those generated from rigid body 
          definitions), KINEMATIC COUPLINGS, AND/OR EQUATIONS WILL ACTIVATE 
          ADDITIONAL DEGREES OF FREEDOM
  
                               E L E M E N T   Q U A L I T Y  C H E C K S        
  
  
 ***NOTES: DISTORTED ISOPARAMETRIC ELEMENTS: ANGLE BETWEEN ISOPARAMETRIC LINES 
           IS LESS THAN 45 DEGREES OR GREATER THAN 135 DEGREES.
  
           TETRAHEDRAL QUALITY MEASURE: VOLUME OF TETRAHEDRON DIVIDED BY THE 
           VOLUME OF EQUILATERAL TETRAHEDRON WITH SAME CIRCUMSPHERE RADIUS; 
           0 FOR DEGENERATE TETRAHEDRON AND 1 FOR EQUILATERIAL TETRAHEDRON. IT 
           IS RECOMMENDED THAT THE TETRAHEDRAL QUALITY MEASURE BE GREATER THAN 
           0.02, THE MIN INTERIOR (DIHEDRAL) ANGLE BE GREATER THAN 10 DEGREES, 
           AND THE MAX INTERIOR (DIHEDRAL) ANGLE BE LESS THAN 160 DEGREES. 
  
           MODIFIED TETRAHEDRAL QUALITY MEASURE: ANGLES BETWEEN THE TWO LINE 
           SEGMENTS ON EACH EDGE; THE EDGES OF MODIFIED TETRAHEDRAL SHOULD BE 
           AS STRAIGHT AS POSSIBLE. IT IS RECOMMENDED THAT THE ANGLE BETWEEN 
           THE TWO LINE SEGMENTS ON EACH EDGE IS BETWEEN 160 AND 180 DEGREES. 
  
           TRIANGULAR QUALITY MEASURE: AREA OF TRIANGLE DIVIDED BY THE AREA OF 
           EQUILATERAL TRIANGLE WITH SAME CIRCUMCIRCLE RADIUS; 0 FOR DEGENERATE 
           TRIANGLE AND 1 FOR EQUILATERAL TRIANGLE. IT IS RECOMMENDED THAT THE
           TRIANGULAR QUALITY MEASURE BE GREATER THAN 0.01, THE MIN INTERIOR 
           ANGLE BE GREATER THAN 10 DEGREES, AND THE MAX INTERIOR ANGLE BE LESS 
           THAN 160 DEGREES. 
  
           NODAL ADJUSTMENTS ARISING FROM CONTACT INTERACTIONS AND/OR TIE 
           CONSTRAINTS CAN CAUSE SEVERE ELEMENT DISTORTION. IT MAY BE NECESSARY 
           TO REMESH IN ORDER TO REDUCE THE AMOUNT OF ADJUSTMENT. 

 ***WARNING: 81 elements are distorted. Either the isoparametric angles are out 
             of the suggested limits or the triangular or tetrahedral quality 
             measure is bad. The elements have been identified in element set 
             WarnElemDistorted.
  
 --------------------------------------------------------------------------------
 Distorted tetrahedral elements
  
      Element      Quality measure     Min angle        Max angle     Adjusted nodes 
 ----------------- ---------------- ---------------- ---------------- -------------- 
         BLANK-1.1      0.000392458          5.79486          169.333       NO       
         BLANK-1.5      0.000351803          5.56609          168.563       NO       
        BLANK-1.18        0.0371177          9.54299          154.577       NO       
        BLANK-1.20        0.0160749          10.0098          113.905       NO       
        BLANK-1.23        0.0170658          15.7897          142.167       NO       
        BLANK-1.28         0.163354          7.95607           155.29       NO       
        BLANK-1.39         0.141135          8.03794          135.101       NO       
        BLANK-1.40         0.136129          7.69847          139.127       NO       
        BLANK-1.65         0.152233          7.48603              90.       NO       
        BLANK-1.70         0.114215          8.89558          114.971       NO       
        BLANK-1.87        0.0102046          22.4366          146.491       NO       
        BLANK-1.95          0.17969           7.8438              90.       NO       
        BLANK-1.97         0.141587          7.81692          106.126       NO       
       BLANK-1.106        0.0383754          9.18086          131.287       NO       
       BLANK-1.107         0.169198          9.25481           97.959       NO       
       BLANK-1.110        0.0524239          8.41689          130.869       NO       
       BLANK-1.120         0.165092          9.88022              90.       NO       
       BLANK-1.134         0.177895          7.95478          98.7396       NO       
       BLANK-1.137         0.125241          7.78563           90.188       NO       
       BLANK-1.148        0.0984564           7.2865          114.537       NO       
       BLANK-1.174         0.179021          7.99291              90.       NO       
       BLANK-1.189        0.0178319          25.1632          149.142       NO       
       BLANK-1.196        0.0385092           9.4323           155.67       NO       
       BLANK-1.221       0.00157659           32.287          156.761       NO       
       BLANK-1.263         0.196277          9.31732              90.       NO       
       BLANK-1.292         0.179463           9.1978          94.7739       NO       
       BLANK-1.293         0.179463          7.87661              90.       NO       
       BLANK-1.305      0.000854745           9.6936          164.509       NO       
       BLANK-1.306         0.186893          8.08288              90.       NO       
       BLANK-1.311         0.176489          9.66058              90.       NO       
       BLANK-1.318          0.17969          8.63977          94.2576       NO       
       BLANK-1.323         0.176472           7.6826          97.1536       NO       
       BLANK-1.325         0.171484          7.66698              90.       NO       
       BLANK-1.326          0.17113          7.68167              90.       NO       
       BLANK-1.334        0.0303336          10.2787          163.632       NO       
       BLANK-1.337        0.0330047          9.39486          147.074       NO       
       BLANK-1.340         0.173371          7.66289          94.6326       NO       
       BLANK-1.342         0.176472           9.6317              90.       NO       
       BLANK-1.353         0.174089          8.97291           143.58       NO       
       BLANK-1.361         0.155513          8.45909              90.       NO       
       BLANK-1.376         0.197659          9.29371          136.311       NO       
       BLANK-1.382         0.176803          9.10591              90.       NO       
       BLANK-1.393        0.0156618          14.2919          149.634       NO       
       BLANK-1.424          0.16855          7.52502              90.       NO       
       BLANK-1.430         0.190483          9.40046              90.       NO       
       BLANK-1.435         0.173371          8.31122              90.       NO       
       BLANK-1.436         0.120331          6.90814              90.       NO       
       BLANK-1.458         0.164669          7.30838              90.       NO       
       BLANK-1.499       0.00258676          9.88767          165.427       NO       
       BLANK-1.593         0.182831          8.71746              90.       NO       
       BLANK-1.621         0.109538          9.47907          127.427       NO       
       BLANK-1.636         0.153892          8.55328              90.       NO       
       BLANK-1.756         0.151113          9.72824          133.158       NO       
       BLANK-1.757        0.0184422          25.4304          141.864       NO       
       BLANK-1.762         0.172834          7.41676          96.2666       NO       
       BLANK-1.763         0.203634          9.24279              90.       NO       
       BLANK-1.836         0.183512          8.68035              90.       NO       
       BLANK-1.856         0.167966          7.44369          98.3793       NO       
       BLANK-1.882         0.179008          9.07602              90.       NO       
       BLANK-1.886         0.169819           8.7876              90.       NO       
       BLANK-1.924         0.182779          8.30473          95.3384       NO       
       BLANK-1.925         0.182779          8.37211              90.       NO       
       BLANK-1.927         0.173259           8.1794          93.6129       NO       
       BLANK-1.928         0.177534           9.1224           148.59       NO       
       BLANK-1.929         0.173259          7.74887              90.       NO       
       BLANK-1.933         0.169819          9.53954          97.4883       NO       
       BLANK-1.943         0.169198          9.10706              90.       NO       
       BLANK-1.946         0.188792          8.31651              90.       NO       
       BLANK-1.948         0.174821          9.80402              90.       NO       
       BLANK-1.953         0.132584          8.34949          90.2609       NO       
       BLANK-1.955        0.0113248          26.6338          150.746       NO       
       BLANK-1.957       0.00238703          38.9794          157.795       NO       
       BLANK-1.964         0.181828          9.92616          141.316       NO       
       BLANK-1.966        0.0187964           30.241          144.781       NO       
       BLANK-1.973         0.172834          9.31663              90.       NO       
      BLANK-1.1048         0.135421          8.99832          101.032       NO       
      BLANK-1.1049         0.179008          7.72331          96.1618       NO       
      BLANK-1.1080         0.177815          9.37432              90.       NO       
      BLANK-1.1082         0.155733          8.83211              90.       NO       
      BLANK-1.1106          0.17707          8.99761              90.       NO       
      BLANK-1.1111        0.0149138          22.5351          149.208       NO       
  
  
  *Step, name="Loading down with g", nlgeom=NO
  *output, field, variable=PRESELECT
  *output, history, variable=PRESELECT
  *Step, name="Loading down with g", nlgeom=NO
  *Step, name="Loading down with g", nlgeom=NO
  Loading of the blank with gravity                                               
  *static
  *boundary
  *boundary
  *dload
  *output, field, variable=PRESELECT
  *output, history, variable=PRESELECT
  *endstep
  *Step, name="Loading down with g", nlgeom=NO
  *static
  *boundary
  *boundary
  *cload
  *endstep



                            P R O B L E M   S I Z E


          NUMBER OF ELEMENTS IS                                  1139
          NUMBER OF NODES IS                                     2439
          NUMBER OF NODES DEFINED BY THE USER                    2439
          TOTAL NUMBER OF VARIABLES IN THE MODEL                 7464
          (DEGREES OF FREEDOM PLUS MAX NO. OF ANY LAGRANGE MULTIPLIER
           VARIABLES. INCLUDE *PRINT,SOLVE=YES TO GET THE ACTUAL NUMBER.)



                              END OF USER INPUT PROCESSING



     JOB TIME SUMMARY
       USER TIME (SEC)      =  0.10000    
       SYSTEM TIME (SEC)    =   0.0000    
       TOTAL CPU TIME (SEC) =  0.10000    
       WALLCLOCK TIME (SEC) =          0
1

   Abaqus 2022                                  Date 06-Feb-2024   Time 13:11:02
   For use by IMPERIAL COLLEGE OF SCIENCE TECHNOLOGYMEDICINE under license from Dassault Systemes or its subsidiary.

     jobDescription                                                                            STEP    1  INCREMENT    1
     Loading of the blank with gravity                                                    TIME COMPLETED IN THIS STEP   0.00    


                        S T E P       1     S T A T I C   A N A L Y S I S


          Loading of the blank with gravity                                               

     AUTOMATIC TIME CONTROL WITH -
          A SUGGESTED INITIAL TIME INCREMENT OF                 1.00    
          AND A TOTAL TIME PERIOD OF                            1.00    
          THE MINIMUM TIME INCREMENT ALLOWED IS                1.000E-05
          THE MAXIMUM TIME INCREMENT ALLOWED IS                 1.00    

     LINEAR EQUATION SOLVER TYPE         DIRECT SPARSE



                    TOTAL MASS OF MODEL

                      2.0090374E-03


                    LOCATION OF THE CENTER OF MASS OF THE MODEL

                       260.1938           114.2722           3.150000    


                    MOMENTS OF INERTIA ABOUT THE ORIGIN
                           I(XX)               I(YY)               I(ZZ)

                       35.06590           181.1097           216.1225    


                    PRODUCTS OF INERTIA ABOUT THE ORIGIN
                           I(XY)               I(XZ)               I(YZ)

                      -59.73623          -1.646628         -0.7231682    


                    MOMENTS OF INERTIA ABOUT THE CENTER OF MASS
                           I(XX)               I(YY)               I(ZZ)

                       8.811663           45.07636           53.87474    


                    PRODUCTS OF INERTIA ABOUT THE CENTER OF MASS
                           I(XY)               I(XZ)               I(YZ)

                     -1.6846419E-03      4.2517989E-11     -1.4052093E-12
  
                   M E M O R Y   E S T I M A T E
  
 PROCESS      FLOATING PT       MINIMUM MEMORY        MEMORY TO
              OPERATIONS           REQUIRED          MINIMIZE I/O
             PER ITERATION           (MB)               (MB)
  
     1          2.08E+08               20                 43
  
 NOTE:
      (1) SINCE ABAQUS DOES NOT PRE-ALLOCATE MEMORY AND ONLY ALLOCATES MEMORY AS NEEDED DURING THE ANALYSIS,
          THE MEMORY REQUIREMENT PRINTED HERE CAN ONLY BE VIEWED AS A GENERAL GUIDELINE BASED ON THE BEST
          KNOWLEDGE AVAILABLE AT THE BEGINNING OF A STEP BEFORE THE SOLUTION PROCESS HAS BEGUN.
      (2) THE ESTIMATE IS NORMALLY UPDATED AT THE BEGINNING OF EVERY STEP. IT IS THE MAXIMUM VALUE OF THE
          ESTIMATE FROM THE CURRENT STEP TO THE LAST STEP OF THE ANALYSIS, WITH UNSYMMETRIC SOLUTION TAKEN
          INTO ACCOUNT IF APPLICABLE. 
      (3) SINCE THE ESTIMATE IS BASED ON THE ACTIVE DEGREES OF FREEDOM IN THE FIRST ITERATION OF THE 
          CURRENT STEP, THE MEMORY ESTIMATE MIGHT BE SIGNIFICANTLY DIFFERENT THAN ACTUAL USAGE FOR 
          PROBLEMS WITH SUBSTANTIAL CHANGES IN ACTIVE DEGREES OF FREEDOM BETWEEN STEPS (OR EVEN WITHIN
          THE SAME STEP). EXAMPLES ARE: PROBLEMS WITH SIGNIFICANT CONTACT CHANGES, PROBLEMS WITH MODEL
          CHANGE, PROBLEMS WITH BOTH STATIC STEP AND STEADY STATE DYNAMIC PROCEDURES WHERE ACOUSTIC 
          ELEMENTS WILL ONLY BE ACTIVATED IN THE STEADY STATE DYNAMIC STEPS.
      (4) FOR MULTI-PROCESS EXECUTION, THE ESTIMATED VALUE OF FLOATING POINT OPERATIONS FOR EACH PROCESS
          IS BASED ON AN INITIAL SCHEDULING OF OPERATIONS AND MIGHT NOT REFLECT THE ACTUAL FLOATING 
          POINT OPERATIONS COMPLETED ON EACH PROCESS. OPERATIONS ARE DYNAMICALLY BALANCED DURING EXECUTION, 
          SO THE ACTUAL BALANCE OF OPERATIONS BETWEEN PROCESSES IS EXPECTED TO BE BETTER THAN THE ESTIMATE
          PRINTED HERE.
      (5) THE UPPER LIMIT OF MEMORY THAT CAN BE ALLOCATED BY ABAQUS WILL IN GENERAL DEPEND ON THE VALUE OF
          THE "MEMORY" PARAMETER AND THE AMOUNT OF PHYSICAL MEMORY AVAILABLE ON THE MACHINE. PLEASE SEE
          THE "ABAQUS ANALYSIS USER'S MANUAL" FOR MORE DETAILS. THE ACTUAL USAGE OF MEMORY AND OF DISK
          SPACE FOR SCRATCH DATA WILL DEPEND ON THIS UPPER LIMIT AS WELL AS THE MEMORY REQUIRED TO MINIMIZE
          I/O. IF THE MEMORY UPPER LIMIT IS GREATER THAN THE MEMORY REQUIRED TO MINIMIZE I/O, THEN THE ACTUAL
          MEMORY USAGE WILL BE CLOSE TO THE ESTIMATED "MEMORY TO MINIMIZE I/O" VALUE, AND THE SCRATCH DISK
          USAGE WILL BE CLOSE-TO-ZERO; OTHERWISE, THE ACTUAL MEMORY USED WILL BE CLOSE TO THE PREVIOUSLY
          MENTIONED MEMORY LIMIT, AND THE SCRATCH DISK USAGE WILL BE ROUGHLY PROPORTIONAL TO THE DIFFERENCE
          BETWEEN THE ESTIMATED "MEMORY TO MINIMIZE I/O" AND THE MEMORY UPPER LIMIT. HOWEVER ACCURATE
          ESTIMATE OF THE SCRATCH DISK SPACE IS NOT POSSIBLE.
      (6) USING "*RESTART, WRITE" CAN GENERATE A LARGE AMOUNT OF DATA WRITTEN IN THE WORK DIRECTORY.


          THE ANALYSIS HAS BEEN COMPLETED



                              ANALYSIS COMPLETE
                              WITH      1 WARNING MESSAGES ON THE DAT FILE



     JOB TIME SUMMARY
       USER TIME (SEC)      =  0.10000    
       SYSTEM TIME (SEC)    =   0.0000    
       TOTAL CPU TIME (SEC) =  0.10000    
       WALLCLOCK TIME (SEC) =          1
