*Heading
 jobDescription
** Job name: Job-MESH-100 Model name: Model-1
** Generated by: Abaqus/CAE 2022
*Preprint, echo=NO, model=NO, history=NO, contact=NO
**
** PARTS
**
*Part, name=Blank
*End Part
**  
**
** ASSEMBLY
**
*Assembly, name=Assembly
**  
*Instance, name=Blank-1, part=Blank
*Node
      1,   163.201599,   112.702393,   6.30000019
      2,   163.201599,   112.702393,           0.
      3,   33.8514519,   126.734268,   6.30000019
      4,   33.8514519,   126.734268,           0.
      5,   489.356018,    109.62307,   6.30000019
      6,   489.356018,    109.62307,           0.
      7,   188.702881,   142.056381,   6.30000019
      8,           0.,   118.599998,   6.30000019
      9,   47.4367943,   143.012253,   6.30000019
     10,         520.,   118.599998,   6.30000019
     11,   465.537964,   135.966904,   6.30000019
     12,           0.,           0.,   6.30000019
     13,           0.,   228.600006,   6.30000019
     14,           0.,   228.600006,           0.
     15,           0.,           0.,           0.
     16,         520.,   228.600006,   6.30000019
     17,         520.,   228.600006,           0.
     18,         520.,           0.,           0.
     19,         520.,           0.,   6.30000019
     20,   171.708282,   109.763611,   6.30000019
** ... 1475 like lines cut
*Element, type=C3D10
  1,  259,   11,  108,   43,  264,  263,  262,  266,  265,  267
  2,  260,   25,  115,    2,  270,  269,  268,  272,  271,  273
  3,  260,  114,    2,  122,  275,  274,  272,  277,  276,  278
  4,  114,   87,    2,  116,  280,  279,  274,  282,  281,  283
  5,    2,  260,    1,  114,  272,  285,  284,  274,  275,  286
  6,  114,  260,    1,   53,  275,  285,  286,  288,  287,  289
  7,  118,  132,   59,  109,  292,  291,  290,  294,  293,  295
  8,  109,  118,   94,   59,  294,  297,  296,  295,  290,  298
  9,   39,   94,  113,   34,  301,  300,  299,  303,  302,  304
 10,  261,   56,  110,  129,  307,  306,  305,  309,  308,  310
 11,  248,  157,   80,   85,  313,  312,  311,  315,  314,  316
 12,  226,  143,  227,  207,  319,  318,  317,  321,  320,  322
 13,  226,  241,   83,  191,  325,  324,  323,  327,  326,  328
 14,  171,  241,  188,   18,  331,  330,  329,  333,  332,  334
 15,   78,   19,   18,  241,  337,  336,  335,  339,  338,  332
 16,   19,  206,  142,  171,  342,  341,  340,  344,  343,  345
 17,  139,  174,  153,  214,  348,  347,  346,  350,  349,  351
 18,  214,  174,  153,  231,  349,  347,  351,  353,  352,  354
 19,  213,  238,  150,  174,  357,  356,  355,  359,  358,  360
 20,  214,  211,  229,  138,  363,  362,  361,  365,  364,  366
** ... 689 like lines cut
*Nset, nset="Aluminum blank", generate
    1,  1495,     1
*Elset, elset="Aluminum blank", generate
   1,  709,    1
** Section: Aluminium section
*Solid Section, elset="Aluminum blank", material="Aluminium alloy 6061-T6"
,
*End Instance
**  
*Node
      1,         170.,   118.599998,    3.1500001
*Nset, nset="Inner left", instance=Blank-1
    3,    4,   30,   31,   32,   33,   34,   35,   36,   37,   38,   39,  303, 1179, 1183, 1224
 1228, 1245, 1357, 1387, 1388, 1408, 1409, 1439, 1446, 1448, 1474, 1475, 1476, 1477, 1478, 1480
 1482, 1483, 1486, 1487
*Elset, elset="Inner left", instance=Blank-1
 494, 535, 663, 665, 667, 670, 675, 676, 677, 678, 682, 686
*Nset, nset="Inner right", instance=Blank-1
    5,    6,   40,   41,   42,   43,   44,   45,   46,   47,   48,   49,  380,  384,  385, 1326
 1339, 1340, 1341, 1350, 1412, 1414, 1415, 1423, 1426, 1428, 1429, 1430, 1434, 1453, 1455, 1467
 1468, 1470, 1472, 1473
*Elset, elset="Inner right", instance=Blank-1
  25, 447, 539, 561, 562, 567, 619, 638, 640, 642, 651, 654
*Nset, nset="Loading point"
 1,
*Nset, nset="Loading set", instance=Blank-1
    1,    3,    5,    7,    8,    9,   10,   11,   12,   13,   16,   19,   20,   21,   22,   23
   24,   30,   31,   32,   33,   34,   40,   41,   42,   43,   44,   50,   51,   52,   53,   54
   55,   56,   57,   58,   59,   60,   61,   62,   63,   64,   65,   66,   67,   68,   70,   71
   72,   73,   83,   84,   85,   86,   87,   88,   89,   90,   91,   92,   93,   94,   95,   96
   97,   98,   99,  204,  205,  206,  207,  208,  209,  210,  211,  212,  213,  214,  215,  216
  217,  218,  219,  220,  221,  222,  223,  224,  225,  226,  227,  228,  229,  230,  231,  232
  233,  234,  235,  236,  237,  238,  239,  240,  241,  242,  243,  244,  245,  246,  247,  248
  249,  250,  251,  252,  253,  254,  255,  256,  257,  258,  265,  289,  298,  302,  315,  317
  321,  322,  323,  324,  325,  338,  342,  353,  357,  361,  362,  363,  367,  370,  371,  389
  392,  396,  397,  398,  399,  407,  408,  412,  418,  419,  420,  422,  433,  434,  435,  437
  440,  441,  457,  459,  463,  464,  467,  468,  473,  475,  478,  485,  489,  490,  491,  493
  503,  515,  519,  524,  525,  526,  534,  536,  537,  539,  545,  555,  559,  560,  561,  573
  574,  579,  580,  584,  589,  594,  595,  596,  600,  603,  610,  612,  613,  614,  620,  621
  626,  629,  632,  633,  634,  637,  639,  641,  642,  646,  647,  653,  654,  668,  669,  674
  682,  685,  688,  689,  696,  699,  701,  708,  718,  719,  720,  721,  722,  723,  727,  728
  733,  734,  737,  758,  759,  765,  766,  767,  774,  775,  776,  780,  787,  789,  792,  793
  794,  799,  805,  810,  814,  815,  828,  833,  835,  836,  837,  838,  849,  851,  853,  859
  860,  866,  867,  871,  875,  882,  887,  888,  889,  890,  892,  904,  906,  907,  915,  926
  927,  929,  932,  938,  955,  957,  965,  966,  967,  972,  975,  978,  979,  984,  986,  987
  999, 1000, 1004, 1005, 1016, 1022, 1028, 1029, 1031, 1032, 1040, 1042, 1046, 1048, 1054, 1055
** ... 9 like lines cut
*Elset, elset="Loading set", instance=Blank-1
  12,  13,  20,  22,  27,  28,  30,  32,  35,  36,  42,  43,  45,  48,  49,  58
  60,  61,  66,  68,  70,  74,  78,  80,  85,  86,  87,  90,  92,  97, 101, 105
 108, 111, 112, 113, 116, 117, 118, 120, 124, 129, 131, 134, 138, 139, 145, 151
 152, 157, 160, 165, 166, 167, 175, 176, 177, 183, 184, 191, 196, 201, 205, 213
 219, 222, 223, 228, 229, 236, 237, 241, 248, 253, 255, 256, 257, 263, 266, 268
 270, 272, 273, 274, 275, 281, 286, 293, 295, 299, 313, 317, 321, 322, 329, 333
 346, 347, 348, 350, 352, 353, 363, 365, 369, 370, 371, 372, 376, 378, 383, 385
 389, 397, 398, 400, 407, 409, 411, 412, 418, 419, 425, 430, 435, 437, 438, 441
 444, 449, 451, 455, 456, 462, 466, 471, 474, 479, 481, 482, 490, 493, 494, 495
 502, 507, 512, 513, 516, 517, 520, 522, 525, 529, 530, 534, 535, 536, 538, 540
 542, 551, 552, 553, 556, 559, 560, 561, 563, 564, 570, 575, 577, 582, 586, 592
 593, 595, 604, 607, 612, 615, 619, 621, 622, 623, 624, 628, 631, 632, 640, 643
 646, 648, 649, 651, 658, 659, 660, 661, 666, 667, 670, 671, 672, 673, 680, 684
 688, 689, 690, 691, 693, 699, 702, 704
*Nset, nset="loading inner circle set", instance=Blank-1
    1,    2,   20,   21,   22,   23,   24,   25,   26,   27,   28,   29,  271,  284, 1073, 1075
 1077, 1140, 1155, 1278, 1279, 1296, 1299, 1300, 1313, 1367, 1437, 1458, 1459, 1462, 1463, 1466
 1484, 1493, 1494, 1495
*Elset, elset="loading inner circle set", instance=Blank-1
 279, 417, 427, 576, 626, 630, 631, 635, 679, 697, 702, 704
*Nset, nset="loading point set"
 1,
*Surface, type=NODE, name="loading inner circle set_CNS_", internal
"loading inner circle set", 1.
** Constraint: Loading Constraint
*MPC
BEAM, "loading inner circle set", "Loading point"
*End Assembly
** 
** MATERIALS
** 
*Material, name="Aluminium alloy 6061-T6"
*Density
 2.7e-09,
*Elastic
68900., 0.33
** ----------------------------------------------------------------
** 
** STEP: Loading down with g
** 
*Step, name="Loading down with g", nlgeom=NO
Loading of the blank with gravity
*Static
1., 1., 1e-05, 1.
** 
** BOUNDARY CONDITIONS
** 
** Name: Fixed left Type: Symmetry/Antisymmetry/Encastre
*Boundary
"Inner left", PINNED
** Name: Inner right Type: Symmetry/Antisymmetry/Encastre
*Boundary
"Inner right", PINNED
** 
** LOADS
** 
** Name: Gravity   Type: Gravity
*Dload
Blank-1."Aluminum blank", GRAV, 9800., 0., -1., 0.
** Name: Loading centre   Type: Concentrated force
*Cload
"Loading point", 2, -5000.
** 
** OUTPUT REQUESTS
** 
*Restart, write, frequency=0
** 
** FIELD OUTPUT: F-Output-1
** 
*Output, field, variable=PRESELECT
** 
** HISTORY OUTPUT: H-Output-1
** 
*Output, history, variable=PRESELECT
*End Step
