*Heading
 jobDescription
** Job name: Job-MESH-200 Model name: Model-1
** Generated by: Abaqus/CAE 2022
*Preprint, echo=NO, model=NO, history=NO, contact=NO
**
** PARTS
**
*Part, name=Blank
*End Part
**  
**
** ASSEMBLY
**
*Assembly, name=Assembly
**  
*Instance, name=Blank-1, part=Blank
*Node
      1,   163.201599,   112.702393,   6.30000019
      2,   163.201599,   112.702393,           0.
      3,   33.8514519,   126.734268,   6.30000019
      4,   33.8514519,   126.734268,           0.
      5,   489.356018,    109.62307,   6.30000019
      6,   489.356018,    109.62307,           0.
      7,   188.702881,   142.056381,   6.30000019
      8,           0.,   118.599998,   6.30000019
      9,   47.4367943,   143.012253,   6.30000019
     10,         520.,   118.599998,   6.30000019
     11,   465.537964,   135.966904,   6.30000019
     12,           0.,           0.,   6.30000019
     13,           0.,   228.600006,   6.30000019
     14,           0.,   228.600006,           0.
     15,           0.,           0.,           0.
     16,         520.,   228.600006,   6.30000019
     17,         520.,   228.600006,           0.
     18,         520.,           0.,           0.
     19,         520.,           0.,   6.30000019
     20,   175.897614,   111.801605,   6.30000019
** ... 1061 like lines cut
*Element, type=C3D10
  1,   77,   52,   11,  185,  190,  189,  188,  192,  191,  193
  2,   36,   64,   32,   35,  196,  195,  194,  198,  197,  199
  3,  116,  102,  171,  154,  202,  201,  200,  204,  203,  205
  4,  103,   85,   88,  158,  208,  207,  206,  210,  209,  211
  5,  137,   75,   90,   85,  214,  213,  212,  216,  215,  217
  6,  150,  137,   90,   85,  219,  212,  218,  220,  216,  217
  7,   90,   75,  137,  165,  213,  214,  212,  222,  221,  223
  8,   61,  105,  169,   14,  226,  225,  224,  228,  227,  229
  9,  151,  166,  104,   94,  232,  231,  230,  234,  233,  235
 10,  147,  157,   94,  166,  238,  237,  236,  240,  239,  233
 11,  157,   70,  101,   48,  243,  242,  241,  245,  244,  246
 12,  157,  101,   70,   94,  241,  242,  243,  237,  247,  248
 13,   88,  157,  140,  145,  251,  250,  249,  253,  252,  254
 14,  157,  145,   88,   91,  252,  253,  251,  256,  255,  257
 15,   61,  105,  162,  169,  226,  259,  258,  224,  225,  260
 16,   61,  162,   58,  169,  258,  262,  261,  224,  260,  263
 17,  162,   92,   98,  139,  266,  265,  264,  268,  267,  269
 18,  147,   70,  157,   48,  270,  243,  238,  271,  244,  245
 19,  157,  140,   48,  101,  250,  272,  245,  241,  273,  246
 20,   73,  143,   79,  169,  276,  275,  274,  278,  277,  279
** ... 497 like lines cut
*Nset, nset="Aluminum blank", generate
    1,  1081,     1
*Elset, elset="Aluminum blank", generate
   1,  517,    1
** Section: Aluminium section
*Solid Section, elset="Aluminum blank", material="Aluminium alloy 6061-T6"
,
*End Instance
**  
*Node
      1,         170.,   118.599998,    3.1500001
*Nset, nset="Inner left", instance=Blank-1
    3,    4,   26,   27,   28,   29,   30,   31,  873,  935,  957,  995,  997, 1014, 1015, 1051
 1056, 1057, 1060, 1061, 1062, 1063, 1078, 1080
*Elset, elset="Inner left", instance=Blank-1
 400, 442, 454, 466, 468, 470, 495, 504
*Nset, nset="Inner right", instance=Blank-1
    5,    6,   32,   33,   34,   35,   36,   37,  194,  198,  199,  860,  913,  923,  924,  972
  986,  987, 1004, 1007, 1009, 1046, 1050, 1054
*Elset, elset="Inner right", instance=Blank-1
   2, 299, 302, 364, 386, 436, 441, 447
*Nset, nset="Loading point"
 1,
*Nset, nset="Loading set", instance=Blank-1
    1,    3,    5,    7,    8,    9,   10,   11,   12,   13,   16,   19,   20,   21,   22,   26
   27,   28,   32,   33,   34,   38,   39,   40,   41,   42,   43,   44,   45,   46,   47,   48
   49,   50,   51,   52,   53,   54,   55,   56,   58,   59,   65,   66,  131,  132,  133,  134
  135,  136,  137,  138,  139,  140,  141,  142,  143,  144,  145,  146,  147,  148,  149,  150
  151,  152,  153,  154,  155,  156,  157,  158,  159,  160,  161,  162,  163,  164,  165,  166
  167,  168,  169,  170,  171,  172,  173,  174,  175,  176,  177,  178,  179,  180,  181,  182
  183,  184,  189,  205,  219,  223,  232,  238,  239,  240,  245,  250,  252,  254,  260,  262
  263,  268,  271,  272,  277,  281,  282,  289,  291,  294,  295,  296,  299,  300,  308,  312
  313,  322,  324,  326,  329,  330,  331,  335,  337,  346,  347,  348,  353,  354,  363,  380
  388,  390,  392,  395,  396,  400,  403,  404,  407,  412,  413,  419,  420,  421,  438,  444
  446,  448,  449,  450,  452,  453,  454,  458,  461,  464,  468,  469,  470,  485,  486,  492
  493,  494,  495,  498,  502,  508,  509,  510,  513,  514,  516,  525,  526,  527,  530,  533
  546,  548,  558,  562,  563,  568,  574,  576,  577,  578,  580,  591,  592,  594,  595,  600
  604,  605,  626,  627,  628,  633,  637,  638,  639,  641,  654,  659,  660,  668,  671,  672
  679,  680,  683,  688,  695,  697,  701,  702,  703,  705,  706,  709,  715,  716,  717,  723
  724,  725,  728,  734,  741,  745,  746,  747,  751,  754,  755,  756,  766,  767,  768,  769
  773,  774,  776,  778,  781,  787,  788,  789,  790,  791,  794,  797,  798,  801,  804,  805
  812,  814,  815,  816,  817,  818,  819,  822,  829,  840,  841,  843,  844,  847,  848,  852
  855,  856,  859,  861,  868,  870,  874,  875,  878,  887,  891,  892,  895,  896,  899,  901
  913,  919,  920,  921,  924,  925,  926,  928,  930,  933,  934,  936,  948,  949,  950,  953
** ... 4 like lines cut
*Elset, elset="Loading set", instance=Blank-1
  10,  13,  16,  18,  19,  21,  25,  26,  29,  31,  32,  33,  36,  37,  49,  51
  53,  56,  58,  65,  66,  67,  71,  76,  77,  81,  82,  87,  99, 102, 104, 106
 107, 112, 115, 118, 125, 127, 128, 129, 136, 137, 141, 145, 146, 153, 157, 159
 162, 163, 166, 168, 176, 177, 181, 189, 195, 198, 200, 203, 204, 210, 214, 215
 216, 217, 220, 222, 224, 228, 233, 235, 236, 238, 239, 246, 248, 251, 253, 259
 262, 264, 266, 272, 276, 282, 283, 288, 290, 291, 292, 293, 297, 299, 301, 303
 304, 306, 308, 312, 313, 314, 315, 323, 324, 325, 327, 329, 332, 336, 337, 338
 345, 346, 349, 350, 351, 354, 355, 358, 360, 362, 363, 366, 367, 369, 374, 376
 377, 378, 380, 381, 382, 385, 388, 392, 393, 394, 399, 401, 402, 406, 407, 413
 414, 415, 417, 418, 419, 420, 421, 427, 429, 432, 438, 440, 443, 444, 446, 447
 454, 455, 461, 462, 464, 468, 480, 488, 490, 496, 497, 498, 499, 502, 503, 510
 513, 515
*Nset, nset="loading inner circle set", instance=Blank-1
    1,    2,   20,   21,   22,   23,   24,   25,  888,  946, 1020, 1029, 1032, 1033, 1038, 1039
 1065, 1068, 1069, 1070, 1072, 1074, 1075, 1076
*Elset, elset="loading inner circle set", instance=Blank-1
 414, 423, 478, 479, 483, 485, 486, 488
*Nset, nset="loading point set"
 1,
*Surface, type=NODE, name="loading inner circle set_CNS_", internal
"loading inner circle set", 1.
** Constraint: Loading Constraint
*MPC
BEAM, "loading inner circle set", "Loading point"
*End Assembly
** 
** MATERIALS
** 
*Material, name="Aluminium alloy 6061-T6"
*Density
 2.7e-09,
*Elastic
68900., 0.33
** ----------------------------------------------------------------
** 
** STEP: Loading down with g
** 
*Step, name="Loading down with g", nlgeom=NO
Loading of the blank with gravity
*Static
1., 1., 1e-05, 1.
** 
** BOUNDARY CONDITIONS
** 
** Name: Fixed left Type: Symmetry/Antisymmetry/Encastre
*Boundary
"Inner left", PINNED
** Name: Inner right Type: Symmetry/Antisymmetry/Encastre
*Boundary
"Inner right", PINNED
** 
** LOADS
** 
** Name: Gravity   Type: Gravity
*Dload
Blank-1."Aluminum blank", GRAV, 9800., 0., -1., 0.
** Name: Loading centre   Type: Concentrated force
*Cload
"Loading point", 2, -5000.
** 
** OUTPUT REQUESTS
** 
*Restart, write, frequency=0
** 
** FIELD OUTPUT: F-Output-1
** 
*Output, field, variable=PRESELECT
** 
** HISTORY OUTPUT: H-Output-1
** 
*Output, history, variable=PRESELECT
*End Step
