 Abaqus/Standard 2022                  DATE 06-Feb-2024 TIME 13:44:04
 SUMMARY OF JOB INFORMATION:
 STEP  INC ATT SEVERE EQUIL TOTAL  TOTAL      STEP       INC OF       DOF    IF
               DISCON ITERS ITERS  TIME/    TIME/LPF    TIME/LPF    MONITOR RIKS
               ITERS               FREQ
   1     1   1     0     1     1  1.00       1.00       1.000     
                          
 ANALYSIS CYCLE Opt-Process-3-Job HAS COMPLETED SUCCESSFULLY
   1     1   1     0     5     5  1.00       1.00       1.000     
                          
 ANALYSIS CYCLE Opt-Process-3-Job HAS COMPLETED SUCCESSFULLY
