**
**     _____ _ _         __  __           _ _  __ _          _ 
**    |  ___(_) | ___   |  \/  | ___   __| (_)/ _(_) ___  __| |
**    | |_  | | |/ _ \  | |\/| |/ _ \ / _` | | |_| |/ _ \/ _` |
**    |  _| | | |  __/  | |  | | (_) | (_| | |  _| |  __/ (_| |
**    |_|   |_|_|\___|  |_|  |_|\___/ \__,_|_|_| |_|\___|\__,_|
**
**    by SIMULIA Tosca Structure 3DEXPERIENCE R2022x Build R424 - 20210922T180013Z
<<<<<<< HEAD:top-opt/Opt-Process-1/SAVE.inp/003/Opt-Process-1-Job.inp
**    Time: Tue Feb  6 13:38:28 2024
=======
**    Time: Fri Feb  2 14:46:18 2024
>>>>>>> e548f7b3a2534b26fcb4b8e3171f1cc780b43667:iter 1.2/Opt-Process-1/SAVE.inp/003/Opt-Process-1-Job.inp
**
*Heading
** Job name: Opt-Process-1-Job Model name: Model-1
** Generated by: Abaqus/CAE 2022
*Preprint, echo=NO, model=NO, history=NO, contact=NO
** ----------------------------------------------------------------
** 
** PART INSTANCE: Blank-1
** 
*Node
<<<<<<< HEAD:top-opt/Opt-Process-1/SAVE.inp/003/Opt-Process-1-Job.inp
	      1,   149.086472,   140.108704,   6.30000019
	      2,   163.201599,   112.702393,   6.30000019
	      3,           0.,   118.599998,   6.30000019
	      4,   44.4893799,   144.868958,   6.30000019
	      5,   33.8514519,   126.734268,   6.30000019
	      6,         520.,   118.599998,   6.30000019
	      7,   465.537964,   135.966904,   6.30000019
	      8,   489.356018,    109.62307,   6.30000019
	      9,           0.,           0.,   6.30000019
	     10,         520.,           0.,   6.30000019
	     11,         520.,   228.600006,   6.30000019
	     12,           0.,   228.600006,   6.30000019
	     13,   145.831497,   136.373108,   6.30000019
	     14,   143.235764,   132.152695,   6.30000019
	     15,   141.370087,   127.562607,   6.30000019
	     16,    140.28537,   122.728035,   6.30000019
	     17,   140.011185,   117.780869,   6.30000019
	     18,   140.555023,   112.856041,   6.30000019
	     19,   141.902039,   108.087898,   6.30000019
	     20,   144.015488,   103.606499,   6.30000019
** ... 11976 like lines cut
*Element, type=C3D8R
	   1,    14,    13,   463,   473,  6012,  6011,  6461,  6471
	   2,    19,    18,   476,   452,  6017,  6016,  6474,  6450
	   3,   557,   449,    59,   451,  6555,  6447,  6057,  6449
	   4,   453,   478,    21,    20,  6451,  6476,  6019,  6018
	   5,   476,   529,   501,   452,  6474,  6527,  6499,  6450
	   6,   454,   480,    24,    23,  6452,  6478,  6022,  6021
	   7,   554,    50,    51,   455,  6552,  6048,  6049,  6453
	   8,   541,   455,    51,   456,  6539,  6453,  6049,  6454
	   9,    51,    52,   560,   456,  6049,  6050,  6558,  6454
	  10,   458,   538,   457,    53,  6456,  6536,  6455,  6051
	  11,   460,   493,    43,    42,  6458,  6491,  6041,  6040
	  12,   558,    56,    57,   461,  6556,  6054,  6055,  6459
	  13,   536,   461,    57,   462,  6534,  6459,  6055,  6460
	  14,   544,   566,   499,   500,  6542,  6564,  6497,  6498
	  15,   461,   536,   527,   552,  6459,  6534,  6525,  6550
	  16,   528,   506,   494,   493,  6526,  6504,  6492,  6491
	  17,   490,   534,   519,   546,  6488,  6532,  6517,  6544
	  18,   532,   546,   502,   530,  6530,  6544,  6500,  6528
	  19,    36,    35,   468,   488,  6034,  6033,  6466,  6486
	  20,   523,   513,   551,   540,  6521,  6511,  6549,  6538
** ... 5812 like lines cut
*Elset, elset=_Blank-1_ALL_ELEMENTS, generate
	    1,  5832,     1
*Nset, nset="Blank-1_Aluminum blank", generate
	     1,  11996,      1
*Elset, elset="Blank-1_Aluminum blank", generate
	    1,  5832,     1
=======
	      1,   493.930786,   110.503761,           0.
	      2,   497.452271,   113.553841,           0.
	      3,   498.976929,   117.956032,           0.
	      4,   498.096222,   122.530769,           0.
	      5,   495.046173,   126.052269,           0.
	      6,   490.643982,   127.576935,           0.
	      7,   486.069214,   126.696236,           0.
	      8,   482.547729,   123.646156,           0.
	      9,   481.023071,   119.243973,           0.
	     10,   481.903778,   114.669228,           0.
	     11,   484.953827,   111.147736,           0.
	     12,   489.356018,    109.62307,           0.
	     13,    29.268322,   127.570206,           0.
	     14,   24.8812428,   126.002586,           0.
	     15,   21.8657322,   122.451454,           0.
	     16,   21.0297909,   117.868324,           0.
	     17,   22.5974102,   113.481247,           0.
	     18,   26.1485481,   110.465729,           0.
	     19,    30.731678,   109.629791,           0.
	     20,   35.1187553,   111.197411,           0.
** ... 12190 like lines cut
*Element, type=C3D8R
	   1,  1339,   211,  1656,  4595,  7444,  6316,  7761, 10700
	   2,  2354,  5192,  2541,  2396,  8459, 11297,  8646,  8501
	   3,   716,  4813,  4640,  4881,  6821, 10918, 10745, 10986
	   4,  4926,  5000,  5016,   715, 11031, 11105, 11121,  6820
	   5,  3403,  3515,  4364,  5839,  9508,  9620, 10469, 11944
	   6,  5856,  2975,  3052,   569, 11961,  9080,  9157,  6674
	   7,  3053,  2777,  2707,   586,  9158,  8882,  8812,  6691
	   8,  2722,  2943,  5469,  2876,  8827,  9048, 11574,  8981
	   9,  2941,  2877,  2973,   472,  9046,  8982,  9078,  6577
	  10,   425,  1718,  1586,  1490,  6530,  7823,  7691,  7595
	  11,  1453,  1587,    53,  1209,  7558,  7692,  6158,  7314
	  12,   424,  1687,  1587,  1453,  6529,  7792,  7692,  7558
	  13,  1587,  1454,    54,    53,  7692,  7559,  6159,  6158
	  14,  1210,    54,  1454,  1455,  7315,  6159,  7559,  7560
	  15,  2215,   422,  4597,  2251,  8320,  6527, 10702,  8356
	  16,  1211,    56,  1456,  1457,  7316,  6161,  7561,  7562
	  17,  1458,  1590,    58,  1212,  7563,  7695,  6163,  7317
	  18,  1459,  1460,  1213,    59,  7564,  7565,  7318,  6164
	  19,  1460,  5077,  4726,  1591,  7565, 11182, 10831,  7696
	  20,  1591,  1461,  1214,    60,  7696,  7566,  7319,  6165
** ... 5919 like lines cut
*Elset, elset=_Blank-1_ALL_ELEMENTS, generate
	    1,  5939,     1
*Nset, nset="Blank-1_Aluminum blank", generate
	     1,  12210,      1
*Elset, elset="Blank-1_Aluminum blank", generate
	    1,  5939,     1
>>>>>>> e548f7b3a2534b26fcb4b8e3171f1cc780b43667:iter 1.2/Opt-Process-1/SAVE.inp/003/Opt-Process-1-Job.inp
** Section: Aluminium section
**
** Properties modified via distribution tables
** Added by the optimization system
**
**
** NEW ELEMENT SET ADDED BY THE OPTIMIZATION SYSTEM
**
<<<<<<< HEAD:top-opt/Opt-Process-1/SAVE.inp/003/Opt-Process-1-Job.inp
*ELSET, ELSET=EL_P1_M1707226708_1, GENERATE
	1, 5832, 1
**
** NEW PROPERTY BASED ON PROPERTY 1 ADDED BY THE OPTIMIZATION SYSTEM
**
*SOLID SECTION, ELSET=EL_P1_M1707226708_1, MATERIAL="Aluminium alloy 6061-T6"
=======
*ELSET, ELSET=EL_P1_M1706885178_1, GENERATE
	1, 5939, 1
**
** NEW PROPERTY BASED ON PROPERTY 1 ADDED BY THE OPTIMIZATION SYSTEM
**
*SOLID SECTION, ELSET=EL_P1_M1706885178_1, MATERIAL="Aluminium alloy 6061-T6"
>>>>>>> e548f7b3a2534b26fcb4b8e3171f1cc780b43667:iter 1.2/Opt-Process-1/SAVE.inp/003/Opt-Process-1-Job.inp
	1.0
*SCALESTIFFNESS
	__SMATSO_DISTRIBUTION_STIFFNESS_1
*SCALEMASS
	__SMATSO_DISTRIBUTION_MASS_1
<<<<<<< HEAD:top-opt/Opt-Process-1/SAVE.inp/003/Opt-Process-1-Job.inp
=======
*SCALESTRESSDESIGN
	__SMATSO_DISTRIBUTION_STRESSDESIGN_1
>>>>>>> e548f7b3a2534b26fcb4b8e3171f1cc780b43667:iter 1.2/Opt-Process-1/SAVE.inp/003/Opt-Process-1-Job.inp
**
** Distribution table added by the optimization system
**
*INCLUDE, INPUT=tosca_distribution.inp
*System
*Node
<<<<<<< HEAD:top-opt/Opt-Process-1/SAVE.inp/003/Opt-Process-1-Job.inp
	  11997,         170.,   118.599998,    3.1500001
*Nset, nset="Inner left"
	    5,   97,   98,   99,  100,  101,  102,  103,  104,  105,  106,  107, 6003, 6095, 6096, 6097
	 6098, 6099, 6100, 6101, 6102, 6103, 6104, 6105
*Elset, elset="Inner left"
	 152, 157, 193, 194, 222, 223, 224, 225, 236, 237, 240, 243
*Nset, nset="Inner right"
	    8,  144,  145,  146,  147,  148,  149,  150,  151,  152,  153,  154, 6006, 6142, 6143, 6144
	 6145, 6146, 6147, 6148, 6149, 6150, 6151, 6152
*Elset, elset="Inner right"
	 295, 297, 299, 300, 301, 303, 339, 350, 354, 357, 358, 375
*Nset, nset="Loading point"
	11997,
*Nset, nset="Loading set", generate
	    1,  5998,     1
*Elset, elset="Loading set", generate
	    1,  5832,     1
*Nset, nset=Set-8, generate
	     1,  11996,      1
*Elset, elset=Set-8, generate
	    1,  5832,     1
*Nset, nset=Set-9
	   3,   4,   5,  61,  62,  63,  64,  65,  66,  67,  68,  69,  70,  71,  72,  73
	  74,  75,  76,  77,  78,  79,  80,  81,  82,  83,  84,  85,  86,  87,  88,  89
	  90,  91,  92,  93,  94,  95,  96,  97,  98,  99, 100, 101, 102, 103, 104, 105
	 106, 107, 568, 569, 570, 571, 572, 573, 574, 575, 576, 577, 578, 579, 580, 581
	 582, 583, 584, 585, 586, 587, 588, 589, 590, 591, 592, 593, 594, 595, 596, 597
	 598, 599, 600, 601, 602, 603, 604, 605, 606, 607, 608, 609, 610, 611, 612, 613
	 614, 615, 616, 617, 618, 619, 620, 621, 622, 623, 624, 625, 626, 627, 628, 629
	 630, 631, 632, 633, 634, 635, 636, 637, 638, 639, 640, 641, 642, 643, 644, 645
	 646, 647, 648, 649, 650, 651, 652, 653, 654, 655, 656, 657, 658, 659, 660, 661
	 662, 663, 664, 665, 666, 667, 668, 669, 670, 671, 672, 673, 674, 675, 676, 677
	 678, 679, 680, 681, 682, 683, 684, 685, 686, 687, 688
*Elset, elset=Set-9, generate
	 145,  290,    1
*Nset, nset=Set-10
	   1,   2,  13,  14,  15,  16,  17,  18,  19,  20,  21,  22,  23,  24,  25,  26
	  27,  28,  29,  30,  31,  32,  33,  34,  35,  36,  37,  38,  39,  40,  41,  42
	  43,  44,  45,  46,  47,  48,  49,  50,  51,  52,  53,  54,  55,  56,  57,  58
	  59,  60, 449, 450, 451, 452, 453, 454, 455, 456, 457, 458, 459, 460, 461, 462
	 463, 464, 465, 466, 467, 468, 469, 470, 471, 472, 473, 474, 475, 476, 477, 478
	 479, 480, 481, 482, 483, 484, 485, 486, 487, 488, 489, 490, 491, 492, 493, 494
	 495, 496, 497, 498, 499, 500, 501, 502, 503, 504, 505, 506, 507, 508, 509, 510
	 511, 512, 513, 514, 515, 516, 517, 518, 519, 520, 521, 522, 523, 524, 525, 526
	 527, 528, 529, 530, 531, 532, 533, 534, 535, 536, 537, 538, 539, 540, 541, 542
	 543, 544, 545, 546, 547, 548, 549, 550, 551, 552, 553, 554, 555, 556, 557, 558
	 559, 560, 561, 562, 563, 564, 565, 566, 567
*Elset, elset=Set-10, generate
	   1,  144,    1
*Nset, nset=Set-11
	   6,   7,   8, 108, 109, 110, 111, 112, 113, 114, 115, 116, 117, 118, 119, 120
	 121, 122, 123, 124, 125, 126, 127, 128, 129, 130, 131, 132, 133, 134, 135, 136
	 137, 138, 139, 140, 141, 142, 143, 144, 145, 146, 147, 148, 149, 150, 151, 152
	 153, 154, 689, 690, 691, 692, 693, 694, 695, 696, 697, 698, 699, 700, 701, 702
	 703, 704, 705, 706, 707, 708, 709, 710, 711, 712, 713, 714, 715, 716, 717, 718
	 719, 720, 721, 722, 723, 724, 725, 726, 727, 728, 729, 730, 731, 732, 733, 734
	 735, 736, 737, 738, 739, 740, 741, 742, 743, 744, 745, 746, 747, 748, 749, 750
	 751, 752, 753, 754, 755, 756, 757, 758, 759, 760, 761, 762, 763, 764, 765, 766
	 767, 768, 769, 770, 771, 772, 773, 774, 775, 776, 777, 778, 779, 780, 781, 782
	 783, 784, 785, 786, 787, 788, 789, 790, 791, 792, 793, 794, 795, 796, 797, 798
	 799, 800, 801, 802, 803, 804, 805, 806, 807, 808
*Elset, elset=Set-11, generate
	 291,  435,    1
*Nset, nset="loading inner circle set"
	    2,   50,   51,   52,   53,   54,   55,   56,   57,   58,   59,   60, 6000, 6048, 6049, 6050
	 6051, 6052, 6053, 6054, 6055, 6056, 6057, 6058
*Elset, elset="loading inner circle set"
	  7,  9, 12, 47, 48, 50, 54, 58, 60, 63, 74, 88
*Nset, nset="loading point set"
	11997,
=======
	  12211,         170.,   118.599998,    3.1500001
*Nset, nset="Inner left"
	   13,   14,   15,   16,   17,   18,   19,   20,   21,   22,   23,   24, 6118, 6119, 6120, 6121
	 6122, 6123, 6124, 6125, 6126, 6127, 6128, 6129
*Elset, elset="Inner left"
	  132,  192,  193,  195,  196,  197,  198,  201, 2111, 2112, 2115, 2118
*Nset, nset="Inner right"
	    1,    2,    3,    4,    5,    6,    7,    8,    9,   10,   11,   12, 6106, 6107, 6108, 6109
	 6110, 6111, 6112, 6113, 6114, 6115, 6116, 6117
*Elset, elset="Inner right"
	   62,   69,   71,   93,  119,  120,  121,  122,  123,  800,  832, 2119
*Nset, nset="Loading point"
	12211,
*Nset, nset="Loading set", generate
	  6106,  12210,      1
*Elset, elset="Loading set", generate
	    1,  5939,     1
*Nset, nset=Set-8, generate
	     1,  12210,      1
*Elset, elset=Set-8, generate
	    1,  5939,     1
*Nset, nset="loading inner circle set"
	   25,   26,   27,   28,   29,   30,   31,   32,   33,   34,   35,   36, 6130, 6131, 6132, 6133
	 6134, 6135, 6136, 6137, 6138, 6139, 6140, 6141
*Elset, elset="loading inner circle set"
	  209,  210,  211,  233,  234,  284,  286,  309,  327, 2101, 2107, 2116
*Nset, nset="loading point set"
	12211,
>>>>>>> e548f7b3a2534b26fcb4b8e3171f1cc780b43667:iter 1.2/Opt-Process-1/SAVE.inp/003/Opt-Process-1-Job.inp
*Surface, type=NODE, name="loading inner circle set_CNS_"
	"loading inner circle set", 1.
** Constraint: Loading Constraint
*MPC
	BEAM, "loading inner circle set", "Loading point"
** 
** MATERIALS
** 
*MATERIAL, NAME="Aluminium alloy 6061-T6"
*Density
	 2.7e-09,
*Elastic
	68900., 0.33
** ----------------------------------------------------------------
** 
** STEP: Loading down with g
** 
<<<<<<< HEAD:top-opt/Opt-Process-1/SAVE.inp/003/Opt-Process-1-Job.inp
=======
**
** Set definitions for the design responses added by the optimization system
**
*ELSET, ELSET=ALL_ELEMENTS, GENERATE
	1, 5939, 1
>>>>>>> e548f7b3a2534b26fcb4b8e3171f1cc780b43667:iter 1.2/Opt-Process-1/SAVE.inp/003/Opt-Process-1-Job.inp
*STEP, NAME="Loading down with g", NLGEOM=NO, SENSITIVITY=ADJOINT
	LOADINGOFTHEBLANKWITHGRAVITY
*Static
	1., 1., 1e-05, 1.
** 
** BOUNDARY CONDITIONS
** 
** Name: Fixed left Type: Symmetry/Antisymmetry/Encastre
*Boundary
	"Inner left", PINNED
** Name: Inner right Type: Symmetry/Antisymmetry/Encastre
*Boundary
	"Inner right", PINNED
** 
** LOADS
** 
** Name: Gravity   Type: Gravity
*Dload
	"Blank-1_Aluminum blank", GRAV, 9800., 0., -1., 0.
** Name: Loading centre   Type: Concentrated force
*Cload
	"Loading point", 2, -5000.
** 
** OUTPUT REQUESTS
** 
*Restart, write, frequency=0
** 
** FIELD OUTPUT: F-Output-1
** 
*Output, field, variable=PRESELECT
** 
** HISTORY OUTPUT: H-Output-1
** 
*Output, history, variable=PRESELECT
**
** START OF RESULT REQUEST FOR OPTIMIZATION
**
<<<<<<< HEAD:top-opt/Opt-Process-1/SAVE.inp/003/Opt-Process-1-Job.inp
*DESIGN RESPONSE, NAME=D-RESPONSE-2
*GLOBAL RESPONSE
	STIFF
=======
*DESIGN RESPONSE, NAME=D-RESPONSE-1
*ELEMENT RESPONSE, ELSET=ALL_ELEMENTS
	MISES
>>>>>>> e548f7b3a2534b26fcb4b8e3171f1cc780b43667:iter 1.2/Opt-Process-1/SAVE.inp/003/Opt-Process-1-Job.inp
**
** END OF RESULT REQUEST FOR OPTIMIZATION
**
*End Step
