*Heading
 jobDescription
** Job name: Job-MESH-20-Buckle Model name: Model-1-Buckle
** Generated by: Abaqus/CAE 2022
*Preprint, echo=NO, model=NO, history=NO, contact=NO
**
** PARTS
**
*Part, name=Blank
*End Part
**  
**
** ASSEMBLY
**
*Assembly, name=Assembly
**  
*Instance, name=Blank-1, part=Blank
*Node
      1,   163.201599,   112.702393,   6.30000019
      2,   163.201599,   112.702393,           0.
      3,   33.8514519,   126.734268,   6.30000019
      4,   33.8514519,   126.734268,           0.
      5,   489.356018,    109.62307,   6.30000019
      6,   489.356018,    109.62307,           0.
      7,   188.702881,   142.056381,   6.30000019
      8,           0.,   118.599998,   6.30000019
      9,   47.4367943,   143.012253,   6.30000019
     10,         520.,   118.599998,   6.30000019
     11,   465.537964,   135.966904,   6.30000019
     12,           0.,           0.,   6.30000019
     13,           0.,   228.600006,   6.30000019
     14,           0.,   228.600006,           0.
     15,           0.,           0.,           0.
     16,         520.,   228.600006,   6.30000019
     17,         520.,   228.600006,           0.
     18,         520.,           0.,           0.
     19,         520.,           0.,   6.30000019
     20,   169.363052,   109.622566,   6.30000019
** ... 6846 like lines cut
*Element, type=C3D10
   1, 1198,  288,  257,   31, 1206, 1205, 1204, 1208, 1207, 1209
   2, 1198,  288,   31,  268, 1206, 1207, 1208, 1211, 1210, 1212
   3,  230,  288,  228, 1198, 1215, 1214, 1213, 1216, 1206, 1217
   4,  254,   26,  278,  227, 1220, 1219, 1218, 1222, 1221, 1223
   5, 1198,  257,  228,   24, 1204, 1224, 1217, 1226, 1225, 1227
   6, 1198,  288,  268,  230, 1206, 1210, 1211, 1216, 1215, 1228
   7, 1199,  216,  180,  773, 1231, 1230, 1229, 1233, 1232, 1234
   8,  773,  948,  105, 1199, 1237, 1236, 1235, 1233, 1238, 1239
   9,  254,  227,    1,   26, 1222, 1241, 1240, 1220, 1221, 1242
  10, 1199,  216,   15,  180, 1231, 1244, 1243, 1229, 1230, 1245
  11, 1199,  105,   15,   12, 1239, 1246, 1243, 1248, 1247, 1249
  12, 1199,  105,   85,  948, 1239, 1251, 1250, 1238, 1236, 1252
  13, 1199,  216,   85,   12, 1231, 1253, 1250, 1248, 1254, 1255
  14,  298,  277,  254,  227, 1258, 1257, 1256, 1260, 1259, 1222
  15, 1200,   94,  919, 1000, 1263, 1262, 1261, 1265, 1264, 1266
  16, 1200,  155,   13,  106, 1269, 1268, 1267, 1271, 1270, 1272
  17, 1200,  155,   14,   13, 1269, 1274, 1273, 1267, 1268, 1275
  18, 1200,  155,   95,   14, 1269, 1277, 1276, 1273, 1274, 1278
  19, 1200,  919,   95,  155, 1261, 1279, 1276, 1269, 1280, 1277
  20, 1201,  973,  181,  226, 1283, 1282, 1281, 1285, 1284, 1286
** ... 3237 like lines cut
*Nset, nset="Aluminum blank", generate
    1,  6866,     1
*Elset, elset="Aluminum blank", generate
    1,  3257,     1
** Section: Aluminium section
*Solid Section, elset="Aluminum blank", material="Aluminium alloy 6061-T6"
,
*End Instance
**  
*Node
      1,         170.,   118.599998,    3.1500001
*Nset, nset="Inner left", instance=Blank-1
    3,    4,   34,   35,   36,   37,   38,   39,   40,   41,   42,   43,   44,   45,   46,   47
 1324, 1334, 4278, 5394, 5395, 5396, 5507, 5569, 5576, 5910, 5941, 5946, 5947, 5955, 5956, 5957
 5975, 5984, 5990, 6000, 6001, 6016, 6017, 6256, 6289, 6305, 6309, 6311, 6333, 6661, 6842, 6847
*Elset, elset="Inner left", instance=Blank-1
 1634, 2004, 2007, 2012, 2015, 2030, 2038, 2044, 2054, 2249, 2273, 2288, 2308, 2879, 3107, 3138
*Nset, nset="Inner right", instance=Blank-1
    5,    6,   48,   49,   50,   51,   52,   53,   54,   55,   56,   57,   58,   59,   60,   61
 5723, 5727, 5728, 5746, 5960, 5962, 5964, 6013, 6020, 6029, 6044, 6045, 6051, 6052, 6054, 6070
 6071, 6075, 6076, 6100, 6102, 6106, 6107, 6120, 6122, 6380, 6388, 6389, 6403, 6425, 6447, 6820
*Elset, elset="Inner right", instance=Blank-1
 1863, 2017, 2069, 2073, 2088, 2091, 2119, 2123, 2135, 2335, 2345, 2355, 2369, 2386, 2398, 3006
*Nset, nset="Loading point"
 1,
*Nset, nset="Loading set", instance=Blank-1
    1,    3,    5,    7,    8,    9,   10,   11,   12,   13,   16,   19,   20,   21,   22,   23
   24,   25,   26,   34,   35,   36,   37,   38,   39,   40,   48,   49,   50,   51,   52,   53
   54,   62,   63,   64,   65,   66,   67,   68,   69,   70,   71,   72,   73,   74,   75,   76
   77,   78,   79,   80,   81,   82,   83,   84,   85,   86,   87,   88,   89,   90,   91,   92
   93,   94,  106,  107,  108,  109,  110,  111,  112,  113,  114,  115,  116,  117,  118,  119
  120,  121,  122,  123,  124,  125,  126,  127,  128,  129,  130,  192,  193,  194,  195,  196
  197,  198,  199,  200,  201,  202,  203,  204,  205,  206,  207,  208,  209,  210,  211,  212
  213,  214,  215,  216,  217,  218,  219,  220,  221,  222,  223,  224,  225,  226,  227,  228
  229,  230,  231,  232,  233,  234,  235,  236,  237,  238,  239,  240,  241,  242,  243,  244
  245,  246,  247,  248,  249,  250,  251,  252,  928,  929,  930,  931,  932,  933,  934,  935
  936,  937,  938,  939,  940,  941,  942,  943,  944,  945,  946,  947,  948,  949,  950,  951
  952,  953,  954,  955,  956,  957,  958,  959,  960,  961,  962,  963,  964,  965,  966,  967
  968,  969,  970,  971,  972,  973,  974,  975,  976,  977,  978,  979,  980,  981,  982,  983
  984,  985,  986,  987,  988,  989,  990,  991,  992,  993,  994,  995,  996,  997,  998,  999
 1000, 1001, 1002, 1003, 1004, 1005, 1006, 1007, 1008, 1009, 1010, 1011, 1012, 1013, 1014, 1015
 1016, 1017, 1018, 1019, 1020, 1021, 1022, 1023, 1024, 1025, 1026, 1027, 1028, 1029, 1030, 1031
 1032, 1033, 1034, 1035, 1036, 1037, 1038, 1039, 1040, 1041, 1042, 1043, 1044, 1045, 1046, 1047
 1048, 1049, 1050, 1051, 1052, 1053, 1054, 1055, 1056, 1057, 1058, 1059, 1060, 1061, 1062, 1063
 1064, 1065, 1066, 1067, 1068, 1069, 1070, 1071, 1072, 1073, 1074, 1075, 1076, 1077, 1078, 1079
 1080, 1081, 1082, 1083, 1084, 1085, 1086, 1087, 1088, 1089, 1090, 1091, 1092, 1093, 1094, 1095
** ... 80 like lines cut
*Elset, elset="Loading set", instance=Blank-1
    9,   13,   22,   32,   37,   41,   46,   49,   50,   52,   55,   58,   61,   62,   63,   66
   69,   72,   74,   77,   78,   82,   85,   88,   92,   93,   94,   97,   98,  100,  101,  104
  106,  107,  108,  114,  118,  119,  123,  124,  127,  136,  138,  140,  142,  144,  147,  150
  152,  155,  159,  160,  167,  169,  171,  172,  176,  177,  178,  180,  182,  190,  193,  205
  206,  208,  213,  218,  220,  221,  224,  226,  227,  229,  230,  236,  239,  241,  243,  244
  247,  250,  251,  254,  255,  262,  263,  266,  271,  272,  276,  285,  287,  289,  292,  293
  294,  296,  297,  298,  301,  304,  308,  309,  312,  320,  321,  323,  324,  325,  327,  334
  339,  342,  344,  346,  347,  352,  354,  355,  356,  358,  362,  363,  365,  369,  372,  374
  378,  379,  381,  382,  384,  385,  389,  394,  397,  402,  403,  406,  408,  412,  415,  418
  419,  421,  422,  426,  431,  432,  437,  440,  442,  445,  447,  449,  451,  455,  456,  457
  458,  464,  467,  468,  471,  474,  478,  479,  485,  486,  488,  489,  491,  492,  494,  501
  503,  506,  507,  508,  511,  514,  522,  523,  525,  526,  534,  539,  542,  544,  548,  556
  558,  559,  562,  563,  568,  574,  575,  576,  580,  585,  592,  595,  596,  600,  606,  608
  610,  616,  621,  623,  626,  628,  633,  634,  636,  641,  644,  645,  650,  652,  653,  655
  656,  657,  661,  663,  665,  670,  671,  674,  675,  676,  677,  678,  680,  684,  685,  689
  690,  697,  700,  701,  702,  705,  707,  709,  714,  716,  719,  720,  722,  723,  725,  726
  730,  736,  741,  743,  744,  746,  752,  756,  758,  760,  762,  764,  767,  768,  776,  781
  790,  791,  797,  798,  799,  800,  802,  809,  814,  815,  817,  818,  823,  825,  826,  828
  829,  830,  834,  838,  840,  843,  844,  850,  853,  855,  856,  860,  862,  863,  870,  872
  873,  877,  879,  884,  887,  892,  894,  898,  907,  910,  912,  916,  922,  935,  936,  939
** ... 27 like lines cut
*Nset, nset="loading inner circle set", instance=Blank-1
    1,    2,   20,   21,   22,   23,   24,   25,   26,   27,   28,   29,   30,   31,   32,   33
 1242, 1310, 1999, 5511, 5513, 5625, 5627, 5628, 5661, 5769, 5770, 5773, 5775, 5781, 5782, 5797
 5807, 5808, 5827, 5829, 5830, 5845, 5847, 5849, 5852, 5856, 5882, 6141, 6200, 6239, 6785, 6831
*Elset, elset="loading inner circle set", instance=Blank-1
 1697, 1773, 1899, 1907, 1913, 1923, 1932, 1939, 1941, 1944, 1967, 2173, 2212, 2895, 3011, 3038
*Nset, nset="loading point set"
 1,
*Surface, type=NODE, name="loading inner circle set_CNS_", internal
"loading inner circle set", 1.
** Constraint: Loading Constraint
*MPC
BEAM, "loading inner circle set", "Loading point"
*End Assembly
** 
** MATERIALS
** 
*Material, name="Aluminium alloy 6061-T6"
*Density
 2.7e-09,
*Elastic
68900., 0.33
** ----------------------------------------------------------------
** 
** STEP: buckling
** 
*Step, name=buckling, nlgeom=NO, perturbation
buckling
*Buckle, eigensolver=lanczos
1, 0., , , 
** 
** BOUNDARY CONDITIONS
** 
** Name: Fixed left Type: Symmetry/Antisymmetry/Encastre
*Boundary, op=NEW, load case=1
"Inner left", PINNED
*Boundary, op=NEW, load case=2
"Inner left", PINNED
** Name: Inner right Type: Symmetry/Antisymmetry/Encastre
*Boundary, op=NEW, load case=1
"Inner right", PINNED
*Boundary, op=NEW, load case=2
"Inner right", PINNED
** 
** LOADS
** 
** Name: Loading centre   Type: Concentrated force
*Cload
"Loading point", 2, -1.
** 
** OUTPUT REQUESTS
** 
*Restart, write, frequency=0
** 
** FIELD OUTPUT: F-Output-1
** 
*Output, field, variable=PRESELECT
*End Step
