*Heading
 jobDescription
** Job name: Job-MESH-50-Buckle Model name: Model-1-Buckle
** Generated by: Abaqus/CAE 2022
*Preprint, echo=NO, model=NO, history=NO, contact=NO
**
** PARTS
**
*Part, name=Blank
*End Part
**  
**
** ASSEMBLY
**
*Assembly, name=Assembly
**  
*Instance, name=Blank-1, part=Blank
*Node
      1,   163.201599,   112.702393,   6.30000019
      2,   163.201599,   112.702393,           0.
      3,   33.8514519,   126.734268,   6.30000019
      4,   33.8514519,   126.734268,           0.
      5,   489.356018,    109.62307,   6.30000019
      6,   489.356018,    109.62307,           0.
      7,   188.702881,   142.056381,   6.30000019
      8,           0.,   118.599998,   6.30000019
      9,   47.4367943,   143.012253,   6.30000019
     10,         520.,   118.599998,   6.30000019
     11,   465.537964,   135.966904,   6.30000019
     12,           0.,           0.,   6.30000019
     13,           0.,   228.600006,   6.30000019
     14,           0.,   228.600006,           0.
     15,           0.,           0.,           0.
     16,         520.,   228.600006,   6.30000019
     17,         520.,   228.600006,           0.
     18,         520.,           0.,           0.
     19,         520.,           0.,   6.30000019
     20,   169.363052,   109.622566,   6.30000019
** ... 2418 like lines cut
*Element, type=C3D10
   1,  305,   15,  114,  430,  435,  434,  433,  437,  436,  438
   2,   15,  114,  430,  127,  434,  438,  436,  440,  439,  441
   3,  387,  430,   81,  305,  444,  443,  442,  445,  437,  446
   4,  305,  387,  114,  321,  445,  447,  433,  449,  448,  450
   5,  305,  430,   81,   15,  437,  443,  446,  435,  436,  451
   6,  387,  305,   81,  370,  445,  446,  442,  453,  452,  454
   7,  430,  114,  387,  127,  438,  447,  444,  441,  439,  455
   8,   52,  175,   59,   60,  458,  457,  456,  460,  459,  461
   9,  431,  165,  156,  135,  464,  463,  462,  466,  465,  467
  10,  175,  152,   52,  148,  469,  468,  458,  471,  470,  472
  11,  416,  346,  419,  407,  475,  474,  473,  477,  476,  478
  12,  348,  419,  415,  422,  481,  480,  479,  483,  482,  484
  13,  410,  418,  345,  349,  487,  486,  485,  489,  488,  490
  14,  410,  326,  390,  335,  493,  492,  491,  495,  494,  496
  15,  410,  390,  326,  405,  491,  492,  493,  498,  497,  499
  16,  421,  418,  410,  349,  501,  487,  500,  502,  488,  489
  17,  421,  428,  344,  335,  505,  504,  503,  507,  506,  508
  18,  420,  418,  416,  338,  511,  510,  509,  513,  512,  514
  19,  418,  339,  414,  345,  517,  516,  515,  486,  518,  519
  20,  338,  418,  416,  349,  512,  510,  514,  520,  488,  521
** ... 1119 like lines cut
*Nset, nset="Aluminum blank", generate
    1,  2438,     1
*Elset, elset="Aluminum blank", generate
    1,  1139,     1
** Section: Aluminium section
*Solid Section, elset="Aluminum blank", material="Aluminium alloy 6061-T6"
,
*End Instance
**  
*Node
      1,         170.,   118.599998,    3.1500001
*Nset, nset="Inner left", instance=Blank-1
    3,    4,   34,   35,   36,   37,   38,   39,   40,   41,   42,   43,   44,   45,   46,   47
 1441, 1442, 1443, 1929, 1933, 1966, 1968, 1975, 1977, 2029, 2133, 2253, 2255, 2258, 2383, 2391
 2393, 2394, 2396, 2400, 2401, 2402, 2403, 2404, 2421, 2426, 2427, 2432, 2433, 2434, 2435, 2438
*Elset, elset="Inner left", instance=Blank-1
  313,  652, 1021, 1032, 1038, 1040, 1098, 1113, 1116, 1117, 1122, 1127, 1133, 1135, 1137, 1138
*Nset, nset="Inner right", instance=Blank-1
    5,    6,   48,   49,   50,   51,   52,   53,   54,   55,   56,   57,   58,   59,   60,   61
  456,  460,  461, 1227, 1229, 1231, 1293, 1294, 2157, 2201, 2210, 2213, 2295, 2352, 2357, 2358
 2360, 2363, 2364, 2366, 2368, 2369, 2373, 2375, 2376, 2418, 2419, 2422, 2424, 2425, 2428, 2429
*Elset, elset="Inner right", instance=Blank-1
    8,  234,  261,  976,  980,  990,  992,  993,  997, 1086, 1087, 1092, 1095, 1096, 1103, 1107
*Nset, nset="Loading point"
 1,
*Nset, nset="Loading set", instance=Blank-1
    1,    3,    5,    7,    8,    9,   10,   11,   12,   13,   16,   19,   20,   21,   22,   23
   24,   25,   26,   34,   35,   36,   37,   38,   39,   40,   48,   49,   50,   51,   52,   53
   54,   62,   63,   64,   65,   66,   67,   68,   69,   70,   71,   72,   73,   74,   75,   76
   77,   78,   79,   80,   81,   82,   83,   88,   89,   90,   91,   92,   93,   94,   95,   96
  119,  120,  121,  122,  123,  124,  125,  126,  127,  128,  129,  130,  131,  132,  133,  134
  135,  136,  137,  138,  139,  140,  141,  142,  143,  144,  145,  146,  147,  148,  149,  150
  151,  152,  153,  154,  351,  352,  353,  354,  355,  356,  357,  358,  359,  360,  361,  362
  363,  364,  365,  366,  367,  368,  369,  370,  371,  372,  373,  374,  375,  376,  377,  378
  379,  380,  381,  382,  383,  384,  385,  386,  387,  388,  389,  390,  391,  392,  393,  394
  395,  396,  397,  398,  399,  400,  401,  402,  403,  404,  405,  406,  407,  408,  409,  410
  411,  412,  413,  414,  415,  416,  417,  418,  419,  420,  421,  422,  423,  424,  425,  426
  427,  428,  429,  442,  453,  454,  455,  468,  470,  472,  473,  477,  478,  480,  482,  484
  487,  491,  497,  498,  500,  501,  505,  509,  510,  511,  515,  522,  527,  528,  529,  534
  535,  536,  540,  541,  542,  546,  549,  551,  553,  554,  556,  558,  559,  562,  567,  571
  572,  573,  581,  584,  585,  589,  593,  597,  598,  599,  601,  605,  607,  618,  622,  623
  630,  631,  632,  644,  648,  649,  652,  655,  656,  657,  661,  662,  663,  667,  671,  672
  678,  679,  680,  685,  694,  696,  698,  703,  704,  706,  707,  708,  709,  715,  724,  725
  727,  732,  734,  737,  742,  746,  750,  751,  752,  757,  779,  780,  781,  792,  795,  798
  800,  802,  803,  808,  809,  811,  815,  816,  825,  827,  832,  833,  836,  837,  838,  839
  844,  847,  848,  851,  859,  860,  861,  862,  863,  864,  869,  877,  878,  879,  886,  892
** ... 22 like lines cut
*Elset, elset="Loading set", instance=Blank-1
    6,   10,   11,   12,   15,   16,   18,   22,   23,   25,   26,   28,   30,   31,   34,   36
   39,   40,   42,   46,   48,   51,   53,   54,   55,   56,   58,   60,   65,   67,   68,   69
   73,   74,   76,   80,   81,   87,   90,   91,   93,   94,   96,   98,  100,  101,  103,  104
  108,  109,  110,  111,  112,  113,  117,  123,  125,  126,  129,  131,  132,  133,  137,  138
  139,  146,  149,  150,  151,  158,  162,  163,  165,  172,  180,  185,  186,  191,  193,  194
  196,  203,  205,  206,  211,  215,  221,  222,  225,  227,  234,  237,  239,  258,  259,  262
  264,  271,  272,  276,  282,  283,  286,  293,  294,  297,  305,  306,  311,  314,  317,  324
  326,  327,  336,  337,  339,  343,  345,  346,  353,  356,  357,  358,  373,  376,  380,  393
  397,  398,  399,  405,  406,  407,  411,  412,  418,  419,  427,  434,  436,  440,  441,  443
  445,  457,  459,  464,  467,  472,  482,  485,  488,  494,  501,  504,  505,  515,  525,  531
  537,  540,  542,  548,  550,  552,  559,  572,  577,  584,  601,  604,  608,  610,  612,  615
  616,  617,  619,  622,  630,  633,  634,  638,  647,  651,  652,  658,  666,  667,  668,  671
  678,  684,  687,  691,  695,  699,  701,  704,  706,  710,  734,  743,  747,  753,  754,  760
  772,  774,  775,  776,  778,  782,  784,  786,  792,  805,  813,  814,  815,  818,  820,  822
  825,  829,  833,  835,  839,  845,  851,  855,  858,  861,  862,  873,  874,  876,  878,  882
  884,  886,  890,  894,  895,  902,  905,  911,  914,  928,  934,  940,  941,  942,  945,  948
  949,  951,  952,  954,  957,  959,  960,  961,  962,  965,  966,  968,  979,  981,  988,  989
  990,  994, 1002, 1003, 1013, 1015, 1017, 1018, 1027, 1033, 1035, 1051, 1052, 1053, 1054, 1057
 1058, 1074, 1078, 1086, 1087, 1092, 1095, 1096, 1097, 1100, 1101, 1105, 1114, 1119, 1120, 1123
 1125, 1126, 1132, 1136
*Nset, nset="loading inner circle set", instance=Blank-1
    1,    2,   20,   21,   22,   23,   24,   25,   26,   27,   28,   29,   30,   31,   32,   33
 1028, 1030, 1032, 1356, 1358, 1360, 1876, 1878, 1880, 2006, 2038, 2094, 2100, 2225, 2239, 2264
 2278, 2284, 2286, 2309, 2311, 2334, 2381, 2384, 2385, 2406, 2407, 2408, 2410, 2412, 2413, 2414
*Elset, elset="loading inner circle set", instance=Blank-1
  166,  286,  605,  821,  867,  876,  902,  945, 1022, 1050, 1055, 1059, 1069, 1071, 1075, 1077
*Nset, nset="loading point set"
 1,
*Surface, type=NODE, name="loading inner circle set_CNS_", internal
"loading inner circle set", 1.
** Constraint: Loading Constraint
*MPC
BEAM, "loading inner circle set", "Loading point"
*End Assembly
** 
** MATERIALS
** 
*Material, name="Aluminium alloy 6061-T6"
*Density
 2.7e-09,
*Elastic
68900., 0.33
** ----------------------------------------------------------------
** 
** STEP: buckling
** 
*Step, name=buckling, nlgeom=NO, perturbation
buckling
*Buckle, eigensolver=lanczos
1, 0., , , 
** 
** BOUNDARY CONDITIONS
** 
** Name: Fixed left Type: Symmetry/Antisymmetry/Encastre
*Boundary, op=NEW, load case=1
"Inner left", PINNED
*Boundary, op=NEW, load case=2
"Inner left", PINNED
** Name: Inner right Type: Symmetry/Antisymmetry/Encastre
*Boundary, op=NEW, load case=1
"Inner right", PINNED
*Boundary, op=NEW, load case=2
"Inner right", PINNED
** 
** LOADS
** 
** Name: Loading centre   Type: Concentrated force
*Cload
"Loading point", 2, -1.
** 
** OUTPUT REQUESTS
** 
*Restart, write, frequency=0
** 
** FIELD OUTPUT: F-Output-1
** 
*Output, field, variable=PRESELECT
*End Step
